@<TRIPOS>MOLECULE
*****
 1424 1068 0 0 0
SMALL
GASTEIGER

@<TRIPOS>ATOM
      1 N          -0.2255   -0.7703   -0.9223 N.3     1  UNL1       -0.3437
      2 H           0.6162   -0.8578   -1.4898 H       1  UNL1        0.1146
      3 H          -0.3575    0.2283   -0.7677 H       1  UNL1        0.1146
      4 H          -0.9977   -1.0667   -1.5175 H       1  UNL1        0.1146
      5 N          -0.6159   -0.3044    9.5336 N.3     2  UNL2       -0.3437
      6 H          -1.0362    0.5173    9.1017 H       2  UNL2        0.1146
      7 H          -1.3329   -0.7012   10.1393 H       2  UNL2        0.1146
      8 H          -0.4794   -0.9782    8.7814 H       2  UNL2        0.1146
      9 N          -1.0590   -0.7744   27.8407 N.3     3  UNL3       -0.3437
     10 H          -1.5007   -0.0117   28.3521 H       3  UNL3        0.1146
     11 H          -0.3334   -0.3455   27.2680 H       3  UNL3        0.1146
     12 H          -0.5715   -1.3350   28.5382 H       3  UNL3        0.1146
     13 N          -1.1086   -0.6451   30.5698 N.3     4  UNL4       -0.3437
     14 H          -1.2233   -0.0981   31.4218 H       4  UNL4        0.1146
     15 H          -0.8360    0.0174   29.8451 H       4  UNL4        0.1146
     16 H          -0.2966   -1.2407   30.7256 H       4  UNL4        0.1146
     17 N          -1.0590    3.4110    1.1923 N.3     5  UNL5       -0.3437
     18 H          -1.5007    4.2034    1.6564 H       5  UNL5        0.1146
     19 H          -0.3334    3.8043    0.5946 H       5  UNL5        0.1146
     20 H          -0.5715    2.8939    1.9226 H       5  UNL5        0.1146
     21 N          -1.0996    1.6926    7.0541 N.3     6  UNL6       -0.3437
     22 H          -0.3323    1.0991    7.3660 H       6  UNL6        0.1146
     23 H          -0.7112    2.6306    6.9659 H       6  UNL6        0.1146
     24 H          -1.3214    1.3903    6.1066 H       6  UNL6        0.1146
     25 N          -0.9340    3.4165    9.2941 N.3     7  UNL7       -0.3437
     26 H          -1.3757    3.9405    8.5399 H       7  UNL7        0.1146
     27 H          -0.2084    2.8510    8.8557 H       7  UNL7        0.1146
     28 H          -0.4465    4.1046    9.8661 H       7  UNL7        0.1146
     29 N          -1.0063    1.8359   11.1495 N.3     8  UNL8       -0.3437
     30 H          -0.2529    1.6234   10.4972 H       8  UNL8        0.1146
     31 H          -0.9486    1.1322   11.8842 H       8  UNL8        0.1146
     32 H          -0.7567    2.7211   11.5883 H       8  UNL8        0.1146
     33 N          -0.8090    2.8006   21.9958 N.3     9  UNL9       -0.3437
     34 H          -1.2507    3.0912   22.8669 H       9  UNL9        0.1146
     35 H          -0.0834    3.4902   21.8051 H       9  UNL9        0.1146
     36 H          -0.3215    1.9305   22.2047 H       9  UNL9        0.1146
     37 N          -0.8524    2.2661   25.0062 N.3    10  UNL10      -0.3437
     38 H          -1.4738    2.5889   25.7464 H      10  UNL10       0.1146
     39 H           0.0538    2.1137   25.4467 H      10  UNL10       0.1146
     40 H          -1.1921    1.3440   24.7365 H      10  UNL10       0.1146
     41 N          -0.9704    2.0828   27.6072 N.3    11  UNL11      -0.3437
     42 H          -0.8427    1.6996   28.5428 H      11  UNL11       0.1146
     43 H          -1.0655    3.0903   27.7270 H      11  UNL11       0.1146
     44 H          -0.0858    1.9399   27.1220 H      11  UNL11       0.1146
     45 N          -1.2280    4.2207    4.7685 N.3    12  UNL12      -0.3437
     46 H          -0.4954    3.7787    5.3220 H      12  UNL12       0.1146
     47 H          -0.7938    5.0261    4.3200 H      12  UNL12       0.1146
     48 H          -1.4473    3.5662    4.0189 H      12  UNL12       0.1146
     49 N          -0.5294    6.1204    6.8276 N.3    13  UNL13      -0.3437
     50 H          -0.1664    6.4110    5.9208 H      13  UNL13       0.1146
     51 H          -1.2353    6.8100    7.0816 H      13  UNL13       0.1146
     52 H          -1.0334    5.2503    6.6626 H      13  UNL13       0.1146
     53 N          -1.0590    6.0307   15.0195 N.3    14  UNL14      -0.3437
     54 H          -1.5007    5.8182   14.1261 H      14  UNL14       0.1146
     55 H          -0.3334    5.3269   15.1485 H      14  UNL14       0.1146
     56 H          -0.5715    6.9159   14.8883 H      14  UNL14       0.1146
     57 N          -0.8330    5.3972   17.5943 N.3    15  UNL15      -0.3437
     58 H          -0.4412    6.0290   16.8975 H      15  UNL15       0.1146
     59 H          -1.1411    4.5713   17.0830 H      15  UNL15       0.1146
     60 H          -0.0493    5.0942   18.1710 H      15  UNL15       0.1146
     61 N          -1.2249    5.5184   22.5832 N.3    16  UNL16      -0.3437
     62 H          -0.9391    6.0359   23.4131 H      16  UNL16       0.1146
     63 H          -0.4028    5.4742   21.9827 H      16  UNL16       0.1146
     64 H          -1.3978    4.5633   22.8934 H      16  UNL16       0.1146
     65 N          -0.6317    5.7096   28.2284 N.3    17  UNL17      -0.3437
     66 H          -1.5276    5.2744   28.0130 H      17  UNL17       0.1146
     67 H           0.0212    4.9438   28.3885 H      17  UNL17       0.1146
     68 H          -0.3263    6.1639   27.3690 H      17  UNL17       0.1146
     69 N          -1.3813    5.0307   30.8853 N.3    18  UNL18      -0.3437
     70 H          -0.6279    4.8182   30.2330 H      18  UNL18       0.1146
     71 H          -1.3236    4.3269   31.6200 H      18  UNL18       0.1146
     72 H          -1.1317    5.9159   31.3241 H      18  UNL18       0.1146
     73 N           1.1440    0.9194    0.9525 N.3    19  UNL19      -0.3437
     74 H           1.3278   -0.0405    0.6640 H      19  UNL19       0.1146
     75 H           1.8770    1.1576    1.6191 H      19  UNL19       0.1146
     76 H           1.3135    1.4971    0.1304 H      19  UNL19       0.1146
     77 N           1.3336   -0.4240    3.2824 N.3    20  UNL20      -0.3437
     78 H           0.9493   -0.5635    4.2158 H      20  UNL20       0.1146
     79 H           2.0428    0.3016    3.3762 H      20  UNL20       0.1146
     80 H           1.8366   -1.2805    3.0549 H      20  UNL20       0.1146
     81 N           1.5543   -0.1991    6.9134 N.3    21  UNL21      -0.3437
     82 H           0.9329   -0.6594    7.5769 H      21  UNL21       0.1146
     83 H           2.4605   -0.6540    7.0152 H      21  UNL21       0.1146
     84 H           1.2147   -0.4540    5.9871 H      21  UNL21       0.1146
     85 N           1.8314    0.6324    9.2693 N.3    22  UNL22      -0.3437
     86 H           1.5509   -0.3034    9.5591 H      22  UNL22       0.1146
     87 H           0.9683    1.1626    9.1584 H      22  UNL22       0.1146
     88 H           2.3117    1.0420   10.0692 H      22  UNL22       0.1146
     89 N           1.5240   -0.1441   11.9860 N.3    23  UNL23      -0.3437
     90 H           0.6417    0.1465   12.4049 H      23  UNL23       0.1146
     91 H           2.2147    0.5455   12.2789 H      23  UNL23       0.1146
     92 H           1.7819   -1.0142   12.4494 H      23  UNL23       0.1146
     93 N           1.2630   -0.4402   14.6007 N.3    24  UNL24      -0.3437
     94 H           1.5634   -0.8363   15.4901 H      24  UNL24       0.1146
     95 H           1.3951    0.5669   14.6828 H      24  UNL24       0.1146
     96 H           1.9409   -0.7568   13.9089 H      24  UNL24       0.1146
     97 N           1.5255    0.3147   17.1935 N.3    25  UNL25      -0.3437
     98 H           1.6916    0.8330   18.0549 H      25  UNL25       0.1146
     99 H           2.2939    0.5546   16.5687 H      25  UNL25       0.1146
    100 H           1.6514   -0.6688   17.4287 H      25  UNL25       0.1146
    101 N           1.7227   -0.1756   19.9495 N.3    26  UNL26      -0.3437
    102 H           1.2810    0.6672   20.3139 H      26  UNL26       0.1146
    103 H           2.4483    0.1422   19.3085 H      26  UNL26       0.1146
    104 H           2.2102   -0.6003   20.7372 H      26  UNL26       0.1146
    105 N           1.0377   -0.7174   22.4778 N.3    27  UNL27      -0.3437
    106 H           1.0457   -0.7470   23.4963 H      27  UNL27       0.1146
    107 H           1.2289    0.2507   22.2234 H      27  UNL27       0.1146
    108 H           1.8500   -1.2529   22.1749 H      27  UNL27       0.1146
    109 N           1.5461    0.3389   25.3082 N.3    28  UNL28      -0.3437
    110 H           1.9492    0.7325   26.1573 H      28  UNL28       0.1146
    111 H           2.2973   -0.1792   24.8547 H      28  UNL28       0.1146
    112 H           0.8698   -0.3586   25.6155 H      28  UNL28       0.1146
    113 N           1.4838   -0.9054   28.5976 N.3    29  UNL29      -0.3437
    114 H           1.8701   -0.4980   27.7472 H      29  UNL29       0.1146
    115 H           2.1562   -0.7037   29.3362 H      29  UNL29       0.1146
    116 H           0.6522   -0.3594   28.8180 H      29  UNL29       0.1146
    117 N           1.3477    0.9530   30.7516 N.3    30  UNL30      -0.3437
    118 H           0.9060    0.0812   30.4631 H      30  UNL30       0.1146
    119 H           2.0733    0.6930   31.4182 H      30  UNL30       0.1146
    120 H           1.8352    1.3063   29.9295 H      30  UNL30       0.1146
    121 N           1.5977    3.7968    1.2653 N.3    31  UNL31      -0.3437
    122 H           1.1560    2.8787    1.2461 H      31  UNL31       0.1146
    123 H           2.3233    3.7445    1.9789 H      31  UNL31       0.1146
    124 H           2.0852    3.8926    0.3757 H      31  UNL31       0.1146
    125 N           1.2051    2.8564    3.6316 N.3    32  UNL32      -0.3437
    126 H           1.7535    3.3455    4.3375 H      32  UNL32       0.1146
    127 H           0.7253    2.1025    4.1213 H      32  UNL32       0.1146
    128 H           0.4785    3.5082    3.3390 H      32  UNL32       0.1146
    129 N           1.2044    2.5266    6.6798 N.3    33  UNL33      -0.3437
    130 H           1.2368    1.5254    6.8667 H      33  UNL33       0.1146
    131 H           1.0837    2.9776    7.5856 H      33  UNL33       0.1146
    132 H           2.1374    2.7831    6.3605 H      33  UNL33       0.1146
    133 N           1.6579    3.3031    9.7879 N.3    34  UNL34      -0.3437
    134 H           2.3489    3.5603   10.4913 H      34  UNL34       0.1146
    135 H           0.9389    2.7751   10.2805 H      34  UNL34       0.1146
    136 H           1.2165    4.1740    9.4962 H      34  UNL34       0.1146
    137 N           1.2583    2.4767   12.5475 N.3    35  UNL35      -0.3437
    138 H           0.4786    2.1904   13.1378 H      35  UNL35       0.1146
    139 H           2.0958    2.3736   13.1189 H      35  UNL35       0.1146
    140 H           1.3296    1.7720   11.8150 H      35  UNL35       0.1146
    141 N           1.9314    3.7340   15.0463 N.3    36  UNL36      -0.3437
    142 H           1.9548    3.8689   14.0365 H      36  UNL36       0.1146
    143 H           1.2472    4.3997   15.4028 H      36  UNL36       0.1146
    144 H           1.5290    2.8100   15.1969 H      36  UNL36       0.1146
    145 N           1.3477    2.9256   19.6049 N.3    37  UNL37      -0.3437
    146 H           0.9060    3.2162   20.4761 H      37  UNL37       0.1146
    147 H           2.0733    3.6152   19.4143 H      37  UNL37       0.1146
    148 H           1.8352    2.0555   19.8139 H      37  UNL37       0.1146
    149 N           1.4727    2.8006   22.6208 N.3    38  UNL38      -0.3437
    150 H           1.0310    3.0912   23.4919 H      38  UNL38       0.1146
    151 H           2.1983    3.4902   22.4301 H      38  UNL38       0.1146
    152 H           1.9602    1.9305   22.8297 H      38  UNL38       0.1146
    153 N           2.1270    2.8006   25.0510 N.3    39  UNL39      -0.3437
    154 H           2.3104    3.0912   26.0103 H      39  UNL39       0.1146
    155 H           2.5844    3.4902   24.4563 H      39  UNL39       0.1146
    156 H           2.6405    1.9305   24.9181 H      39  UNL39       0.1146
    157 N           1.7877    2.7504   28.0299 N.3    40  UNL40      -0.3437
    158 H           1.9182    2.0776   27.2757 H      40  UNL40       0.1146
    159 H           1.4296    3.5977   27.5915 H      40  UNL40       0.1146
    160 H           1.0268    2.3870   28.6019 H      40  UNL40       0.1146
    161 N           1.4727    3.9788   30.1680 N.3    41  UNL41      -0.3437
    162 H           1.0310    4.0560   31.0831 H      41  UNL41       0.1146
    163 H           2.1983    4.6939   30.1452 H      41  UNL41       0.1146
    164 H           1.9602    3.0840   30.1661 H      41  UNL41       0.1146
    165 N           1.3820    6.2948    1.8275 N.3    42  UNL42      -0.3437
    166 H           0.4994    5.8753    1.5390 H      42  UNL42       0.1146
    167 H           1.7971    5.6454    2.4941 H      42  UNL42       0.1146
    168 H           1.9838    6.2762    1.0054 H      42  UNL42       0.1146
    169 N           1.4727    6.7175    4.5933 N.3    43  UNL43      -0.3437
    170 H           1.0310    5.8457    4.3048 H      43  UNL43       0.1146
    171 H           2.1983    6.4576    5.2599 H      43  UNL43       0.1146
    172 H           1.9602    7.0709    3.7712 H      43  UNL43       0.1146
    173 N           1.5148    4.9494    7.0751 N.3    44  UNL44      -0.3437
    174 H           1.8747    4.3823    6.3088 H      44  UNL44       0.1146
    175 H           2.1794    4.8420    7.8401 H      44  UNL44       0.1146
    176 H           1.5935    5.9180    6.7686 H      44  UNL44       0.1146
    177 N           1.4103    6.1353    9.3319 N.3    45  UNL45      -0.3437
    178 H           2.1663    5.4884    9.5518 H      45  UNL45       0.1146
    179 H           1.3460    6.7721   10.1248 H      45  UNL45       0.1146
    180 H           1.7397    6.6960    8.5474 H      45  UNL45       0.1146
    181 N           1.0977    5.1557   12.1287 N.3    46  UNL46      -0.3437
    182 H           0.6560    4.9432   11.2353 H      46  UNL46       0.1146
    183 H           1.8233    4.4519   12.2577 H      46  UNL46       0.1146
    184 H           1.5852    6.0409   11.9975 H      46  UNL46       0.1146
    185 N           1.4727    6.4675   14.4066 N.3    47  UNL47      -0.3437
    186 H           1.0310    5.5957   14.1181 H      47  UNL47       0.1146
    187 H           2.1983    6.2076   15.0732 H      47  UNL47       0.1146
    188 H           1.9602    6.8209   13.5845 H      47  UNL47       0.1146
    189 N           1.7924    5.5410   19.9768 N.3    48  UNL48      -0.3437
    190 H           2.3968    4.8265   20.3799 H      48  UNL48       0.1146
    191 H           0.9336    5.0632   19.7074 H      48  UNL48       0.1146
    192 H           1.5396    6.1610   20.7450 H      48  UNL48       0.1146
    193 N           1.9727    6.3425   22.9541 N.3    49  UNL49      -0.3437
    194 H           1.5310    5.4707   22.6656 H      49  UNL49       0.1146
    195 H           2.6983    6.0826   23.6207 H      49  UNL49       0.1146
    196 H           2.4602    6.6959   22.1320 H      49  UNL49       0.1146
    197 N           1.4727    5.4057   25.5828 N.3    50  UNL50      -0.3437
    198 H           1.0310    5.1932   24.6894 H      50  UNL50       0.1146
    199 H           2.1983    4.7019   25.7118 H      50  UNL50       0.1146
    200 H           1.9602    6.2909   25.4516 H      50  UNL50       0.1146
    201 N           1.6346    6.5925   28.7160 N.3    51  UNL51      -0.3437
    202 H           1.8027    5.7207   28.2160 H      51  UNL51       0.1146
    203 H           1.1721    6.3326   29.5861 H      51  UNL51       0.1146
    204 H           2.5529    6.9459   28.9809 H      51  UNL51       0.1146
    205 N           1.4727    6.1557   32.2395 N.3    52  UNL52      -0.3437
    206 H           1.0310    5.9432   31.3461 H      52  UNL52       0.1146
    207 H           2.1983    5.4519   32.3685 H      52  UNL52       0.1146
    208 H           1.9602    7.0409   32.1083 H      52  UNL52       0.1146
    209 N           3.9244    0.2960    1.3592 N.3    53  UNL53      -0.3437
    210 H           4.0053   -0.5307    1.9495 H      53  UNL53       0.1146
    211 H           4.2350    1.0805    1.9306 H      53  UNL53       0.1146
    212 H           4.6244    0.1876    0.6267 H      53  UNL53       0.1146
    213 N           4.3652    0.0910    6.1314 N.3    54  UNL54      -0.3437
    214 H           3.6305    0.3633    5.4799 H      54  UNL54       0.1146
    215 H           5.1982    0.6038    5.8457 H      54  UNL54       0.1146
    216 H           4.0952    0.4754    7.0357 H      54  UNL54       0.1146
    217 N           3.9876   -1.1953    9.4331 N.3    55  UNL55      -0.3437
    218 H           3.7668   -0.3014    9.8696 H      55  UNL55       0.1146
    219 H           4.1414   -0.9953    8.4458 H      55  UNL55       0.1146
    220 H           4.8933   -1.4746    9.8074 H      55  UNL55       0.1146
    221 N           3.9482   -1.0943   12.2832 N.3    56  UNL56      -0.3437
    222 H           4.0653   -0.0904   12.1534 H      56  UNL56       0.1146
    223 H           4.7846   -1.5273   11.8941 H      56  UNL56       0.1146
    224 H           3.9910   -1.2544   13.2886 H      56  UNL56       0.1146
    225 N           4.4719    0.5163   14.6255 N.3    57  UNL57      -0.3437
    226 H           4.6000    0.7521   13.6425 H      57  UNL57       0.1146
    227 H           4.7505    1.3435   15.1514 H      57  UNL57       0.1146
    228 H           3.4667    0.4215   14.7630 H      57  UNL57       0.1146
    229 N           4.0252   -0.9559   17.1210 N.3    58  UNL58      -0.3437
    230 H           3.6687   -1.2319   16.2072 H      58  UNL58       0.1146
    231 H           3.5809   -1.5776   17.7952 H      58  UNL58       0.1146
    232 H           5.0143   -1.2010   17.1224 H      58  UNL58       0.1146
    233 N           4.2544   -0.1448   19.7961 N.3    59  UNL59      -0.3437
    234 H           3.8127   -1.0109   20.1011 H      59  UNL59       0.1146
    235 H           4.9800    0.0573   20.4824 H      59  UNL59       0.1146
    236 H           4.7419   -0.3681   18.9296 H      59  UNL59       0.1146
    237 N           3.7121   -0.2560   22.9541 N.3    60  UNL60      -0.3437
    238 H           2.7572   -0.0479   22.6656 H      60  UNL60       0.1146
    239 H           3.6431   -1.0237   23.6207 H      60  UNL60       0.1146
    240 H           4.1768   -0.6389   22.1320 H      60  UNL60       0.1146
    241 N           3.9257   -0.0806   25.5949 N.3    61  UNL61      -0.3437
    242 H           4.1095   -1.0405   25.3064 H      61  UNL61       0.1146
    243 H           4.6587    0.1576   26.2615 H      61  UNL61       0.1146
    244 H           4.0952    0.4971   24.7728 H      61  UNL61       0.1146
    245 N           4.0044   -0.8103   28.1124 N.3    62  UNL62      -0.3437
    246 H           3.5627   -0.1234   27.5029 H      62  UNL62       0.1146
    247 H           4.7300   -1.2566   27.5532 H      62  UNL62       0.1146
    248 H           4.4919   -0.2763   28.8305 H      62  UNL62       0.1146
    249 N           3.8794   -0.2970   31.3766 N.3    63  UNL63      -0.3437
    250 H           3.4377   -1.1688   31.0881 H      63  UNL63       0.1146
    251 H           4.6050   -0.5570   32.0432 H      63  UNL63       0.1146
    252 H           4.3669    0.0563   30.5545 H      63  UNL63       0.1146
    253 N           3.8631    3.0348   -0.0321 N.3    64  UNL64      -0.3437
    254 H           3.7646    4.0216   -0.2667 H      64  UNL64       0.1146
    255 H           4.8038    2.7700   -0.3208 H      64  UNL64       0.1146
    256 H           3.8576    2.9862    0.9857 H      64  UNL64       0.1146
    257 N           4.0340    2.6703    3.1728 N.3    65  UNL65      -0.3437
    258 H           4.3970    2.1022    3.9369 H      65  UNL65       0.1146
    259 H           3.3281    2.0998    2.7095 H      65  UNL65       0.1146
    260 H           3.5300    3.4403    3.6101 H      65  UNL65       0.1146
    261 N           4.0044    3.2105    5.9289 N.3    66  UNL66      -0.3437
    262 H           3.5627    2.5323    5.3097 H      66  UNL66       0.1146
    263 H           4.7300    2.7012    6.4314 H      66  UNL66       0.1146
    264 H           4.4919    3.8686    5.3226 H      66  UNL66       0.1146
    265 N           3.9368    2.4505    9.2072 N.3    67  UNL67      -0.3437
    266 H           4.6405    1.7856    9.5250 H      67  UNL67       0.1146
    267 H           3.8766    3.1638    9.9325 H      67  UNL67       0.1146
    268 H           4.3353    2.9128    8.3912 H      67  UNL67       0.1146
    269 N           4.1294    2.1447   12.2461 N.3    68  UNL68      -0.3437
    270 H           3.6877    2.2045   11.3297 H      68  UNL68       0.1146
    271 H           4.8550    1.4341   12.1623 H      68  UNL68       0.1146
    272 H           4.6169    3.0293   12.3811 H      68  UNL68       0.1146
    273 N           4.3329    3.8788   14.5046 N.3    69  UNL69      -0.3437
    274 H           3.7490    4.5507   15.0006 H      69  UNL69       0.1146
    275 H           5.2501    3.9239   14.9462 H      69  UNL69       0.1146
    276 H           3.9571    2.9591   14.7311 H      69  UNL69       0.1146
    277 N           1.5096    3.4256   17.4740 N.3    70  UNL70      -0.3437
    278 H           2.4718    3.7162   17.3066 H      70  UNL70       0.1146
    279 H           0.9226    4.1152   17.0068 H      70  UNL70       0.1146
    280 H           1.3852    2.5555   16.9584 H      70  UNL70       0.1146
    281 N           4.4114    3.0470   19.5214 N.3    71  UNL71      -0.3437
    282 H           4.6496    2.1774   19.9963 H      71  UNL71       0.1146
    283 H           3.5338    2.8700   19.0347 H      71  UNL71       0.1146
    284 H           4.1944    3.7182   20.2567 H      71  UNL71       0.1146
    285 N           3.8794    1.6865   22.2667 N.3    72  UNL72      -0.3437
    286 H           3.4377    2.1151   21.4545 H      72  UNL72       0.1146
    287 H           4.6050    1.0720   21.9002 H      72  UNL72       0.1146
    288 H           4.3669    2.4390   22.7510 H      72  UNL72       0.1146
    289 N           4.5990    2.9256   25.4591 N.3    73  UNL73      -0.3437
    290 H           4.5604    3.2162   24.4832 H      73  UNL73       0.1146
    291 H           4.0582    3.6152   25.9792 H      73  UNL73       0.1146
    292 H           4.0715    2.0555   25.5142 H      73  UNL73       0.1146
    293 N           4.0708    2.2874   28.3691 N.3    74  UNL74      -0.3437
    294 H           4.0419    1.3220   28.6942 H      74  UNL74       0.1146
    295 H           4.2990    2.8521   29.1861 H      74  UNL74       0.1146
    296 H           4.8774    2.3511   27.7496 H      74  UNL74       0.1146
    297 N           3.7544    2.2109   31.6145 N.3    75  UNL75      -0.3437
    298 H           3.3127    1.9984   30.7211 H      75  UNL75       0.1146
    299 H           4.4800    1.5072   31.7435 H      75  UNL75       0.1146
    300 H           4.2419    3.0961   31.4833 H      75  UNL75       0.1146
    301 N           4.0044    5.1557    1.8154 N.3    76  UNL76      -0.3437
    302 H           3.5627    4.9432    0.9220 H      76  UNL76       0.1146
    303 H           4.7300    4.4519    1.9444 H      76  UNL76       0.1146
    304 H           4.4919    6.0409    1.6842 H      76  UNL76       0.1146
    305 N           4.0507    6.1839    4.3433 N.3    77  UNL77      -0.3437
    306 H           4.2345    5.2240    4.0548 H      77  UNL77       0.1146
    307 H           4.7837    6.4221    5.0099 H      77  UNL77       0.1146
    308 H           4.2202    6.7616    3.5212 H      77  UNL77       0.1146
    309 N           4.0044    5.2807    7.0970 N.3    78  UNL78      -0.3437
    310 H           3.5627    5.0682    6.2037 H      78  UNL78       0.1146
    311 H           4.7300    4.5769    7.2261 H      78  UNL78       0.1146
    312 H           4.4919    6.1659    6.9659 H      78  UNL78       0.1146
    313 N           3.5571    5.2807   11.1495 N.3    79  UNL79      -0.3437
    314 H           4.3105    5.0682   10.4972 H      79  UNL79       0.1146
    315 H           3.6148    4.5769   11.8842 H      79  UNL79       0.1146
    316 H           3.8067    6.1659   11.5883 H      79  UNL79       0.1146
    317 N           4.3794    6.2821   17.2447 N.3    80  UNL80      -0.3437
    318 H           3.9377    6.9029   17.9214 H      80  UNL80       0.1146
    319 H           5.1050    6.8338   16.7892 H      80  UNL80       0.1146
    320 H           4.8669    5.5730   17.7905 H      80  UNL80       0.1146
    321 N           4.0848    6.3135   20.3373 N.3    81  UNL81      -0.3437
    322 H           3.4483    6.9063   19.8064 H      81  UNL81       0.1146
    323 H           4.3077    5.5261   19.7301 H      81  UNL81       0.1146
    324 H           4.9483    6.8457   20.4354 H      81  UNL81       0.1146
    325 N           4.1294    4.7807   22.9420 N.3    82  UNL82      -0.3437
    326 H           3.6877    4.5682   22.0486 H      82  UNL82       0.1146
    327 H           4.8550    4.0769   23.0710 H      82  UNL82       0.1146
    328 H           4.6169    5.6659   22.8108 H      82  UNL82       0.1146
    329 N           4.2544    5.8425   25.4699 N.3    83  UNL83      -0.3437
    330 H           3.8127    4.9707   25.1814 H      83  UNL83       0.1146
    331 H           4.9800    5.5826   26.1365 H      83  UNL83       0.1146
    332 H           4.7419    6.1959   24.6478 H      83  UNL83       0.1146
    333 N           3.8794    5.1557   28.0986 N.3    84  UNL84      -0.3437
    334 H           3.4377    4.9432   27.2053 H      84  UNL84       0.1146
    335 H           4.6050    4.4519   28.2277 H      84  UNL84       0.1146
    336 H           4.3669    6.0409   27.9674 H      84  UNL84       0.1146
    337 N           3.8794    5.8747   30.4726 N.3    85  UNL85      -0.3437
    338 H           3.4377    6.6064   31.0274 H      85  UNL85       0.1146
    339 H           4.6050    6.3361   29.9258 H      85  UNL85       0.1146
    340 H           4.3669    5.2746   31.1364 H      85  UNL85       0.1146
    341 N           6.7722   -0.5036    1.8067 N.3    86  UNL86      -0.3437
    342 H           5.8763   -0.8496    2.1474 H      86  UNL86       0.1146
    343 H           7.2147   -1.2893    1.3322 H      86  UNL86       0.1146
    344 H           6.5528    0.1760    1.0798 H      86  UNL86       0.1146
    345 N           6.7706   -0.3941    4.1147 N.3    87  UNL87      -0.3437
    346 H           5.8164   -0.1035    3.9065 H      87  UNL87       0.1146
    347 H           7.1378    0.2955    4.7690 H      87  UNL87       0.1146
    348 H           6.6911   -1.2642    4.6391 H      87  UNL87       0.1146
    349 N           6.7432   -0.9929    6.7374 N.3    88  UNL88      -0.3437
    350 H           6.4707   -0.0569    7.0341 H      88  UNL88       0.1146
    351 H           7.3150   -1.3712    7.4913 H      88  UNL88       0.1146
    352 H           5.8871   -1.5455    6.7298 H      88  UNL88       0.1146
    353 N           6.2861    0.1059    9.2916 N.3    89  UNL89      -0.3437
    354 H           5.8444    0.3965   10.1628 H      89  UNL89       0.1146
    355 H           7.0117    0.7955    9.1010 H      89  UNL89       0.1146
    356 H           6.7736   -0.7642    9.5005 H      89  UNL89       0.1146
    357 N           6.5361   -0.3941   11.9325 N.3    90  UNL90      -0.3437
    358 H           6.0944   -0.1035   12.8036 H      90  UNL90       0.1146
    359 H           7.2617    0.2955   11.7418 H      90  UNL90       0.1146
    360 H           7.0236   -1.2642   12.1414 H      90  UNL90       0.1146
    361 N           6.5933   -1.0912   14.4093 N.3    91  UNL91      -0.3437
    362 H           6.0661   -1.6559   15.0738 H      91  UNL91       0.1146
    363 H           6.7455   -0.1918   14.8636 H      91  UNL91       0.1146
    364 H           7.5111   -1.5276   14.3359 H      91  UNL91       0.1146
    365 N           6.6447   -0.1934   17.3806 N.3    92  UNL92      -0.3437
    366 H           6.9576   -0.9762   16.8080 H      92  UNL92       0.1146
    367 H           7.4809    0.1785   17.8288 H      92  UNL92       0.1146
    368 H           6.3327    0.5246   16.7284 H      92  UNL92       0.1146
    369 N           6.9454   -1.0947   20.0633 N.3    93  UNL93      -0.3437
    370 H           6.0628   -1.5142   19.7748 H      93  UNL93       0.1146
    371 H           7.3605   -1.7442   20.7299 H      93  UNL93       0.1146
    372 H           7.5473   -1.1134   19.2412 H      93  UNL93       0.1146
    373 N           6.5361   -0.7970   22.8291 N.3    94  UNL94      -0.3437
    374 H           6.0944   -1.6688   22.5406 H      94  UNL94       0.1146
    375 H           7.2617   -1.0570   23.4957 H      94  UNL94       0.1146
    376 H           7.0236   -0.4437   22.0070 H      94  UNL94       0.1146
    377 N           6.4111    0.3280   25.4699 N.3    95  UNL95      -0.3437
    378 H           5.9694   -0.5438   25.1814 H      95  UNL95       0.1146
    379 H           7.1367    0.0680   26.1365 H      95  UNL95       0.1146
    380 H           6.8986    0.6813   24.6478 H      95  UNL95       0.1146
    381 N           6.6611    0.0780   31.0016 N.3    96  UNL96      -0.3437
    382 H           6.2194   -0.7938   30.7131 H      96  UNL96       0.1146
    383 H           7.3867   -0.1820   31.6682 H      96  UNL96       0.1146
    384 H           7.1486    0.4313   30.1795 H      96  UNL96       0.1146
    385 N           6.0361    2.2109    1.8154 N.3    97  UNL97      -0.3437
    386 H           5.5944    1.9984    0.9220 H      97  UNL97       0.1146
    387 H           6.7617    1.5072    1.9444 H      97  UNL97       0.1146
    388 H           6.5236    3.0961    1.6842 H      97  UNL97       0.1146
    389 N           6.6611    2.5227    4.3433 N.3    98  UNL98      -0.3437
    390 H           6.2194    1.6509    4.0548 H      98  UNL98       0.1146
    391 H           7.3867    2.2628    5.0099 H      98  UNL98       0.1146
    392 H           7.1486    2.8761    3.5212 H      98  UNL98       0.1146
    393 N           6.6611    2.2109    7.0970 N.3    99  UNL99      -0.3437
    394 H           6.2194    1.9984    6.2037 H      99  UNL99       0.1146
    395 H           7.3867    1.5072    7.2261 H      99  UNL99       0.1146
    396 H           7.1486    3.0961    6.9659 H      99  UNL99       0.1146
    397 N           6.5361    3.0873    9.4472 N.3   100  UNL100     -0.3437
    398 H           6.0944    3.7081   10.1239 H     100  UNL100      0.1146
    399 H           7.2617    3.6390    8.9917 H     100  UNL100      0.1146
    400 H           7.0236    2.3782    9.9930 H     100  UNL100      0.1146
    401 N           6.8637    2.7047   12.3020 N.3   101  UNL101     -0.3437
    402 H           6.2048    2.3776   11.5969 H     101  UNL101      0.1146
    403 H           7.6813    2.1016   12.2237 H     101  UNL101      0.1146
    404 H           7.1661    3.6287   11.9966 H     101  UNL101      0.1146
    405 N           6.9111    2.0167   14.9199 N.3   102  UNL102     -0.3437
    406 H           6.4694    2.6653   14.2697 H     102  UNL102      0.1146
    407 H           7.6367    1.5373   14.3888 H     102  UNL102      0.1146
    408 H           7.3986    2.5933   15.6041 H     102  UNL102      0.1146
    409 N           3.6458    1.7290   16.8532 N.3   103  UNL103     -0.3437
    410 H           4.3254    0.9994   16.6427 H     103  UNL103      0.1146
    411 H           3.2613    1.4991   17.7685 H     103  UNL103      0.1146
    412 H           4.1834    2.5851   16.9814 H     103  UNL103      0.1146
    413 N           6.3884    1.7803   19.0694 N.3   104  UNL104     -0.3437
    414 H           7.1174    2.0077   19.7442 H     104  UNL104      0.1146
    415 H           6.8598    1.6717   18.1725 H     104  UNL104      0.1146
    416 H           6.0503    0.8530   19.3230 H     104  UNL104      0.1146
    417 N           6.6281    1.5338   22.0815 N.3   105  UNL105     -0.3437
    418 H           7.4859    1.9876   22.3923 H     105  UNL105      0.1146
    419 H           5.8983    1.8445   22.7212 H     105  UNL105      0.1146
    420 H           6.4036    1.9468   21.1774 H     105  UNL105      0.1146
    421 N           7.2208    3.2246   24.5052 N.3   106  UNL106     -0.3437
    422 H           7.8652    2.5468   24.9099 H     106  UNL106      0.1146
    423 H           6.3844    2.7004   24.2520 H     106  UNL106      0.1146
    424 H           6.9455    3.8409   25.2686 H     106  UNL106      0.1146
    425 N           6.7861    1.9863   27.3187 N.3   107  UNL107     -0.3437
    426 H           6.3444    2.9032   27.3684 H     107  UNL107      0.1146
    427 H           7.5117    2.0622   26.6072 H     107  UNL107      0.1146
    428 H           7.2736    1.8609   28.2047 H     107  UNL107      0.1146
    429 N           6.1611    2.7727   30.1266 N.3   108  UNL108     -0.3437
    430 H           5.7194    1.9009   29.8381 H     108  UNL108      0.1146
    431 H           6.8867    2.5128   30.7932 H     108  UNL108      0.1146
    432 H           6.6486    3.1261   29.3045 H     108  UNL108      0.1146
    433 N           6.6504    5.2539    1.0003 N.3   109  UNL109     -0.3437
    434 H           6.3252    5.9800    1.6369 H     109  UNL109      0.1146
    435 H           7.1277    4.5651    1.5801 H     109  UNL109      0.1146
    436 H           5.8125    4.7927    0.6487 H     109  UNL109      0.1146
    437 N           6.4111    5.2340    4.3142 N.3   110  UNL110     -0.3437
    438 H           5.9694    4.7208    3.5527 H     110  UNL110      0.1146
    439 H           7.1367    4.6206    4.6825 H     110  UNL110      0.1146
    440 H           6.8986    6.0164    3.8799 H     110  UNL110      0.1146
    441 N           6.5361    6.5925    6.4842 N.3   111  UNL111     -0.3437
    442 H           6.0944    5.7207    6.1957 H     111  UNL111      0.1146
    443 H           7.2617    6.3326    7.1508 H     111  UNL111      0.1146
    444 H           7.0236    6.9459    5.6621 H     111  UNL111      0.1146
    445 N           6.6954    5.6698    9.5000 N.3   112  UNL112     -0.3437
    446 H           5.8128    5.2503    9.2115 H     112  UNL112      0.1146
    447 H           7.1105    5.0204   10.1666 H     112  UNL112      0.1146
    448 H           7.2973    5.6512    8.6779 H     112  UNL112      0.1146
    449 N           6.2170    5.8601   12.1087 N.3   113  UNL113     -0.3437
    450 H           5.6341    6.6392   11.8062 H     113  UNL113      0.1146
    451 H           6.4565    6.0494   13.0809 H     113  UNL113      0.1146
    452 H           5.6083    5.0430   12.1234 H     113  UNL113      0.1146
    453 N           6.8475    5.5346   15.2258 N.3   114  UNL114     -0.3437
    454 H           6.9465    4.8460   14.4813 H     114  UNL114      0.1146
    455 H           5.8494    5.5938   15.4228 H     114  UNL114      0.1146
    456 H           7.2725    5.1173   16.0526 H     114  UNL114      0.1146
    457 N           6.8835    6.7175   18.0313 N.3   115  UNL115     -0.3437
    458 H           6.7106    5.8457   17.5329 H     115  UNL115      0.1146
    459 H           7.0498    6.4576   19.0025 H     115  UNL115      0.1146
    460 H           7.7720    7.0709   17.6791 H     115  UNL115      0.1146
    461 N           7.0479    4.4899   20.1414 N.3   116  UNL116     -0.3437
    462 H           7.1424    4.6558   19.1405 H     116  UNL116      0.1146
    463 H           7.9116    4.8264   20.5647 H     116  UNL116      0.1146
    464 H           6.3140    5.1196   20.4625 H     116  UNL116      0.1146
    465 N           6.5874    4.8684   22.8423 N.3   117  UNL117     -0.3437
    466 H           6.6347    5.6517   22.1922 H     117  UNL117      0.1146
    467 H           6.8681    4.0453   22.3113 H     117  UNL117      0.1146
    468 H           7.3258    5.0264   23.5266 H     117  UNL117      0.1146
    469 N           6.7248    5.4660   27.8113 N.3   118  UNL118     -0.3437
    470 H           6.1888    4.7384   27.3404 H     118  UNL118      0.1146
    471 H           6.0831    5.9061   28.4694 H     118  UNL118      0.1146
    472 H           7.4192    4.9812   28.3779 H     118  UNL118      0.1146
    473 N           6.5361    5.1557   30.9895 N.3   119  UNL119     -0.3437
    474 H           6.0944    4.9432   30.0961 H     119  UNL119      0.1146
    475 H           7.2617    4.4519   31.1185 H     119  UNL119      0.1146
    476 H           7.0236    6.0409   30.8583 H     119  UNL119      0.1146
    477 N           8.9599    0.6694    0.8566 N.3   120  UNL120     -0.3437
    478 H           9.2854   -0.2905    0.9619 H     120  UNL120      0.1146
    479 H           8.4992    0.9076    1.7338 H     120  UNL120      0.1146
    480 H           9.7982    1.2471    0.8137 H     120  UNL120      0.1146
    481 N           9.0665   -0.8870    3.6884 N.3   121  UNL121     -0.3437
    482 H          10.0294   -1.0141    3.3803 H     121  UNL121      0.1146
    483 H           9.0417   -1.1845    4.6627 H     121  UNL121      0.1146
    484 H           8.9051    0.1191    3.6979 H     121  UNL121      0.1146
    485 N           9.0678    0.1059    6.5258 N.3   122  UNL122     -0.3437
    486 H           8.6261    0.3965    7.3969 H     122  UNL122      0.1146
    487 H           9.7934    0.7955    6.3351 H     122  UNL122      0.1146
    488 H           9.5553   -0.7642    6.7347 H     122  UNL122      0.1146
    489 N           9.0372   -0.4843    9.3728 N.3   123  UNL123     -0.3437
    490 H           9.5253   -1.1624    8.7895 H     123  UNL123      0.1146
    491 H           8.7335   -0.9936   10.2015 H     123  UNL123      0.1146
    492 H           9.7467    0.1738    9.6920 H     123  UNL123      0.1146
    493 N           8.8856   -0.5009   12.5722 N.3   124  UNL124     -0.3437
    494 H           9.5196   -1.1221   13.0727 H     124  UNL124      0.1146
    495 H           8.7216    0.2915   13.1916 H     124  UNL124      0.1146
    496 H           9.4159   -0.1351   11.7827 H     124  UNL124      0.1146
    497 N           9.0463    0.0986   15.0951 N.3   125  UNL125     -0.3437
    498 H           8.6925    0.3978   16.0027 H     125  UNL125      0.1146
    499 H           9.7354    0.7965   14.8184 H     125  UNL125      0.1146
    500 H           9.5686   -0.7594   15.2662 H     125  UNL125      0.1146
    501 N           9.4428   -0.9220   20.0633 N.3   126  UNL126     -0.3437
    502 H           9.0011   -1.7938   19.7748 H     126  UNL126      0.1146
    503 H          10.1684   -1.1820   20.7299 H     126  UNL126      0.1146
    504 H           9.9303   -0.5687   19.2412 H     126  UNL126      0.1146
    505 N           9.3827    0.3736   22.3060 N.3   127  UNL127     -0.3437
    506 H           9.4276    1.0669   23.0514 H     127  UNL127      0.1146
    507 H           9.1740   -0.5143   22.7605 H     127  UNL127      0.1146
    508 H           8.5584    0.6072   21.7544 H     127  UNL127      0.1146
    509 N           8.9428   -0.7970   25.3449 N.3   128  UNL128     -0.3437
    510 H           8.5011   -1.6688   25.0564 H     128  UNL128      0.1146
    511 H           9.6684   -1.0570   26.0115 H     128  UNL128      0.1146
    512 H           9.4303   -0.4437   24.5228 H     128  UNL128      0.1146
    513 N           8.9428   -0.7009   28.2073 N.3   129  UNL129     -0.3437
    514 H           8.5011   -0.5303   27.3050 H     129  UNL129      0.1146
    515 H           9.6684   -1.3960   28.0379 H     129  UNL129      0.1146
    516 H           9.4303    0.1607   28.4488 H     129  UNL129      0.1146
    517 N           8.5556   -1.3232   30.5103 N.3   130  UNL130     -0.3437
    518 H           9.0217   -1.9522   29.8580 H     130  UNL130      0.1146
    519 H           8.1708   -1.9153   31.2450 H     130  UNL130      0.1146
    520 H           9.2946   -0.7757   30.9491 H     130  UNL130      0.1146
    521 N           9.2333    3.1626   -0.1114 N.3   131  UNL131     -0.3437
    522 H          10.1681    3.5097    0.0986 H     131  UNL131      0.1146
    523 H           8.5940    3.7160    0.4572 H     131  UNL131      0.1146
    524 H           9.0473    3.4243   -1.0785 H     131  UNL131      0.1146
    525 N           8.8731    2.8829    2.5474 N.3   132  UNL132     -0.3437
    526 H           9.1051    1.9793    2.9573 H     132  UNL132      0.1146
    527 H           9.7513    3.2696    2.2044 H     132  UNL132      0.1146
    528 H           8.3132    2.6807    1.7203 H     132  UNL132      0.1146
    529 N           9.6557    2.2662    4.7484 N.3   133  UNL133     -0.3437
    530 H           9.1515    1.3821    4.6988 H     133  UNL133      0.1146
    531 H           8.9617    2.9721    4.9904 H     133  UNL133      0.1146
    532 H          10.2739    2.1922    5.5550 H     133  UNL133      0.1146
    533 N           9.1374    3.2368    7.4128 N.3   134  UNL134     -0.3437
    534 H           9.5535    3.0182    8.3169 H     134  UNL134      0.1146
    535 H           9.8614    3.7154    6.8787 H     134  UNL134      0.1146
    536 H           8.9905    2.3422    6.9475 H     134  UNL134      0.1146
    537 N           8.9516    1.9000   10.5523 N.3   135  UNL135     -0.3437
    538 H           9.9225    1.7896   10.8412 H     135  UNL135      0.1146
    539 H           8.7313    2.8868   10.6790 H     135  UNL135      0.1146
    540 H           8.9374    1.7361    9.5467 H     135  UNL135      0.1146
    541 N           9.0124    3.3912   13.5681 N.3   136  UNL136     -0.3437
    542 H           9.4285    2.5071   13.8570 H     136  UNL136      0.1146
    543 H           9.7364    4.0971   13.6949 H     136  UNL136      0.1146
    544 H           8.8655    3.3172   12.5625 H     136  UNL136      0.1146
    545 N           6.1980    3.5506   17.3490 N.3   137  UNL137     -0.3437
    546 H           7.1602    3.8412   17.1816 H     137  UNL137      0.1146
    547 H           5.6110    4.2402   16.8818 H     137  UNL137      0.1146
    548 H           6.0736    2.6805   16.8334 H     137  UNL137      0.1146
    549 N           9.2984    2.0902   19.7470 N.3   138  UNL138     -0.3437
    550 H           8.6990    1.3651   19.3554 H     138  UNL138      0.1146
    551 H           8.6795    2.7257   20.2484 H     138  UNL138      0.1146
    552 H           9.8659    1.6315   20.4583 H     138  UNL138      0.1146
    553 N           8.9721    3.5506   22.5352 N.3   139  UNL139     -0.3437
    554 H           9.1555    3.8412   23.4945 H     139  UNL139      0.1146
    555 H           9.4295    4.2402   21.9405 H     139  UNL139      0.1146
    556 H           9.4856    2.6805   22.4022 H     139  UNL139      0.1146
    557 N           9.6366    1.9463   25.0749 N.3   140  UNL140     -0.3437
    558 H           9.7537    2.8199   25.5863 H     140  UNL140      0.1146
    559 H          10.4730    1.8418   24.5022 H     140  UNL140      0.1146
    560 H           9.6794    1.2046   25.7724 H     140  UNL140      0.1146
    561 N           9.3969    2.3352   27.9885 N.3   141  UNL141     -0.3437
    562 H          10.0414    2.9935   27.5530 H     141  UNL141      0.1146
    563 H           9.1644    1.6521   27.2690 H     141  UNL141      0.1146
    564 H           9.9400    1.8319   28.6885 H     141  UNL141      0.1146
    565 N           8.9891    2.2391   30.8766 N.3   142  UNL142     -0.3437
    566 H           9.1729    1.2793   30.5881 H     142  UNL142      0.1146
    567 H           9.7221    2.4773   31.5432 H     142  UNL142      0.1146
    568 H           9.1586    2.8169   30.0545 H     142  UNL142      0.1146
    569 N           8.8691    6.1184    1.5907 N.3   143  UNL143     -0.3437
    570 H           8.9164    6.9017    0.9406 H     143  UNL143      0.1146
    571 H           9.1498    5.2953    1.0597 H     143  UNL143      0.1146
    572 H           9.6075    6.2764    2.2750 H     143  UNL143      0.1146
    573 N           9.0678    5.0307    4.2062 N.3   144  UNL144     -0.3437
    574 H           8.6261    4.8182    3.3128 H     144  UNL144      0.1146
    575 H           9.7934    4.3269    4.3352 H     144  UNL144      0.1146
    576 H           9.5553    5.9159    4.0750 H     144  UNL144      0.1146
    577 N           9.1928    5.9675    6.9842 N.3   145  UNL145     -0.3437
    578 H           8.7511    5.0957    6.6957 H     145  UNL145      0.1146
    579 H           9.9184    5.7076    7.6508 H     145  UNL145      0.1146
    580 H           9.6803    6.3209    6.1621 H     145  UNL145      0.1146
    581 N           9.1928    4.9057    9.9879 N.3   146  UNL146     -0.3437
    582 H           8.7511    4.6932    9.0945 H     146  UNL146      0.1146
    583 H           9.9184    4.2019   10.1169 H     146  UNL146      0.1146
    584 H           9.6803    5.7909    9.8567 H     146  UNL146      0.1146
    585 N           8.5995    6.4452   12.0977 N.3   147  UNL147     -0.3437
    586 H           8.8019    5.4710   12.3176 H     147  UNL147      0.1146
    587 H           8.9382    6.9883   12.8907 H     147  UNL147      0.1146
    588 H           9.2031    6.6873   11.3132 H     147  UNL147      0.1146
    589 N           9.0678    5.7807   15.0195 N.3   148  UNL148     -0.3437
    590 H           8.6261    5.5682   14.1261 H     148  UNL148      0.1146
    591 H           9.7934    5.0769   15.1485 H     148  UNL148      0.1146
    592 H           9.5553    6.6659   14.8883 H     148  UNL148      0.1146
    593 N           9.0678    5.4293   17.4011 N.3   149  UNL149     -0.3437
    594 H           8.6261    4.9307   18.1722 H     149  UNL149      0.1146
    595 H           9.7934    6.0091   17.8204 H     149  UNL149      0.1146
    596 H           9.5553    4.7226   16.8522 H     149  UNL149      0.1146
    597 N           9.0678    6.0307   23.4420 N.3   150  UNL150     -0.3437
    598 H           8.6261    5.8182   22.5486 H     150  UNL150      0.1146
    599 H           9.7934    5.3269   23.5710 H     150  UNL150      0.1146
    600 H           9.5553    6.9159   23.3108 H     150  UNL150      0.1146
    601 N           8.7556    5.1557   25.5936 N.3   151  UNL151     -0.3437
    602 H           9.7506    4.9432   25.5384 H     151  UNL151      0.1146
    603 H           8.3518    4.4519   26.2102 H     151  UNL151      0.1146
    604 H           8.6847    6.0409   26.0935 H     151  UNL151      0.1146
    605 N           9.3504    6.3462   28.0906 N.3   152  UNL152     -0.3437
    606 H           8.5871    6.6751   28.6800 H     152  UNL152      0.1146
    607 H          10.2031    6.7316   28.4941 H     152  UNL152      0.1146
    608 H           9.4022    5.3387   28.2343 H     152  UNL152      0.1146
    609 N           9.3905    5.2807   30.4910 N.3   153  UNL153     -0.3437
    610 H           9.5198    5.0682   31.4792 H     153  UNL153      0.1146
    611 H           8.7456    4.5769   30.1344 H     153  UNL153      0.1146
    612 H           8.8868    6.1659   30.4576 H     153  UNL153      0.1146
    613 N          11.7044   -0.0815    1.5278 N.3   154  UNL154     -0.3437
    614 H          11.0977    0.2696    2.2674 H     154  UNL154      0.1146
    615 H          11.4467   -1.0582    1.3931 H     154  UNL154      0.1146
    616 H          11.4207    0.4036    0.6778 H     154  UNL154      0.1146
    617 N          11.4218   -0.0774    4.8663 N.3   155  UNL155     -0.3437
    618 H          12.1757    0.3101    5.4318 H     155  UNL155      0.1146
    619 H          11.7979   -0.1729    3.9241 H     155  UNL155      0.1146
    620 H          11.2741   -1.0263    5.2072 H     155  UNL155      0.1146
    621 N          11.4610   -0.2343    7.6561 N.3   156  UNL156     -0.3437
    622 H          10.9637   -0.1993    8.5448 H     156  UNL156      0.1146
    623 H          11.1381   -1.0791    7.1866 H     156  UNL156      0.1146
    624 H          11.1067    0.5461    7.1050 H     156  UNL156      0.1146
    625 N          12.1321   -1.4962    9.7955 N.3   157  UNL157     -0.3437
    626 H          11.2313   -1.5146   10.2716 H     157  UNL157      0.1146
    627 H          11.9809   -1.9404    8.8909 H     157  UNL157      0.1146
    628 H          12.3253   -0.5154    9.5979 H     157  UNL157      0.1146
    629 N          11.4745   -0.1441   11.8075 N.3   158  UNL158     -0.3437
    630 H          11.0328    0.1465   12.6786 H     158  UNL158      0.1146
    631 H          12.2001    0.5455   11.6168 H     158  UNL158      0.1146
    632 H          11.9620   -1.0142   12.0164 H     158  UNL158      0.1146
    633 N          11.7172   -0.9369   14.1983 N.3   159  UNL159     -0.3437
    634 H          11.8873   -0.4363   15.0694 H     159  UNL159      0.1146
    635 H          12.5672   -1.4656   14.0076 H     159  UNL159      0.1146
    636 H          10.9978   -1.6277   14.4072 H     159  UNL159      0.1146
    637 N          11.7979    0.2385   17.2036 N.3   160  UNL160     -0.3437
    638 H          11.4736    0.7620   16.3918 H     160  UNL160      0.1146
    639 H          12.8144    0.2161   17.1356 H     160  UNL160      0.1146
    640 H          11.5835    0.8169   18.0148 H     160  UNL160      0.1146
    641 N          11.9730    0.1232   19.9798 N.3   161  UNL161     -0.3437
    642 H          12.7953    0.6833   19.7595 H     161  UNL161      0.1146
    643 H          12.3222   -0.7979   20.2405 H     161  UNL161      0.1146
    644 H          11.5790    0.5249   20.8293 H     161  UNL161      0.1146
    645 N          11.5208   -1.1561   23.0779 N.3   162  UNL162     -0.3437
    646 H          11.7046   -1.7389   22.2626 H     162  UNL162      0.1146
    647 H          12.2538   -1.3754   23.7510 H     162  UNL162      0.1146
    648 H          11.6903   -0.1961   22.7810 H     162  UNL162      0.1146
    649 N          11.4745    0.1999   25.5752 N.3   163  UNL163     -0.3437
    650 H          11.0328    0.2597   24.6588 H     163  UNL163      0.1146
    651 H          12.2001   -0.5106   25.4914 H     163  UNL163      0.1146
    652 H          11.9620    1.0845   25.7103 H     163  UNL163      0.1146
    653 N          11.5995   -1.3103   28.2374 N.3   164  UNL164     -0.3437
    654 H          11.1578   -0.6234   27.6279 H     164  UNL164      0.1146
    655 H          12.3251   -1.7566   27.6782 H     164  UNL164      0.1146
    656 H          12.0870   -0.7763   28.9555 H     164  UNL164      0.1146
    657 N          11.5150    0.7051   31.1752 N.3   165  UNL165     -0.3437
    658 H          11.9751    0.0016   31.7513 H     165  UNL165      0.1146
    659 H          12.2506    1.1357   30.6168 H     165  UNL165      0.1146
    660 H          10.9288    0.1912   30.5190 H     165  UNL165      0.1146
    661 N          11.7855    2.7666    1.1775 N.3   166  UNL166     -0.3437
    662 H          11.3080    3.6372    1.4063 H     166  UNL166      0.1146
    663 H          12.7339    2.8634    1.5375 H     166  UNL166      0.1146
    664 H          11.3421    2.0455    1.7447 H     166  UNL166      0.1146
    665 N          11.8798    2.6516    3.9023 N.3   167  UNL167     -0.3437
    666 H          12.3697    2.9222    4.7539 H     167  UNL167      0.1146
    667 H          12.0458    3.4014    3.2325 H     167  UNL167      0.1146
    668 H          12.3742    1.8374    3.5406 H     167  UNL167      0.1146
    669 N          11.7191    2.4561    6.9618 N.3   168  UNL168     -0.3437
    670 H          12.3992    1.7315    7.1873 H     168  UNL168      0.1146
    671 H          10.9196    2.2904    7.5715 H     168  UNL168      0.1146
    672 H          12.1316    3.3347    7.2720 H     168  UNL168      0.1146
    673 N          11.6682    2.7184    9.6612 N.3   169  UNL169     -0.3437
    674 H          11.3740    3.3539   10.4014 H     169  UNL169      0.1146
    675 H          12.2919    2.0436   10.1018 H     169  UNL169      0.1146
    676 H          10.8354    2.1967    9.3915 H     169  UNL169      0.1146
    677 N          11.4388    2.2958   12.1770 N.3   170  UNL170     -0.3437
    678 H          11.8243    1.7111   12.9172 H     170  UNL170      0.1146
    679 H          10.7217    2.8703   12.6176 H     170  UNL170      0.1146
    680 H          12.1847    2.9355   11.9074 H     170  UNL170      0.1146
    681 N          11.6413    2.8911   15.0012 N.3   171  UNL171     -0.3437
    682 H          11.8235    3.2139   14.0521 H     171  UNL171      0.1146
    683 H          10.6354    2.7387   15.0580 H     171  UNL171      0.1146
    684 H          12.0694    1.9690   15.0713 H     171  UNL171      0.1146
    685 N           9.6786    2.3564   17.0875 N.3   172  UNL172     -0.3437
    686 H           9.1433    2.8469   16.3725 H     172  UNL172      0.1146
    687 H           9.7688    3.0070   17.8665 H     172  UNL172      0.1146
    688 H           9.0788    1.6024   17.4194 H     172  UNL172      0.1146
    689 N          11.5995    3.3006   19.6049 N.3   173  UNL173     -0.3437
    690 H          11.1578    3.5912   20.4761 H     173  UNL173      0.1146
    691 H          12.3251    3.9902   19.4143 H     173  UNL173      0.1146
    692 H          12.0870    2.4305   19.8139 H     173  UNL173      0.1146
    693 N          11.5995    2.6539   22.6926 N.3   174  UNL174     -0.3437
    694 H          11.1578    1.7668   22.4552 H     174  UNL174      0.1146
    695 H          12.3251    2.4331   23.3732 H     174  UNL174      0.1146
    696 H          12.0870    2.9589   21.8514 H     174  UNL174      0.1146
    697 N          11.6537    3.8863   25.3541 N.3   175  UNL175     -0.3437
    698 H          12.3856    4.5118   25.6880 H     175  UNL175      0.1146
    699 H          11.6517    3.9730   24.3388 H     175  UNL175      0.1146
    700 H          11.9785    2.9415   25.5547 H     175  UNL175      0.1146
    701 N          11.9089    1.3497   27.9003 N.3   176  UNL176     -0.3437
    702 H          12.6852    1.1368   27.2755 H     176  UNL176      0.1146
    703 H          12.1650    0.9639   28.8081 H     176  UNL176      0.1146
    704 H          11.9104    2.3622   28.0151 H     176  UNL176      0.1146
    705 N          11.5995    3.3977   30.5016 N.3   177  UNL177     -0.3437
    706 H          11.1578    2.5259   30.2131 H     177  UNL177      0.1146
    707 H          12.3251    3.1378   31.1682 H     177  UNL177      0.1146
    708 H          12.0870    3.7511   29.6795 H     177  UNL177      0.1146
    709 N          11.5559    6.2821    0.8199 N.3   178  UNL178     -0.3437
    710 H          10.7574    6.9029    0.9443 H     178  UNL178      0.1146
    711 H          12.3799    6.8338    1.0545 H     178  UNL178      0.1146
    712 H          11.4763    5.5730    1.5474 H     178  UNL178      0.1146
    713 N          11.4022    5.5307    3.7270 N.3   179  UNL179     -0.3437
    714 H          12.1556    5.3182    3.0747 H     179  UNL179      0.1146
    715 H          11.4599    4.8269    4.4617 H     179  UNL179      0.1146
    716 H          11.6518    6.4159    4.1658 H     179  UNL179      0.1146
    717 N          11.8774    6.3580    6.3715 N.3   180  UNL180     -0.3437
    718 H          11.3930    5.4641    6.4395 H     180  UNL180      0.1146
    719 H          12.1596    6.5975    7.3209 H     180  UNL180      0.1146
    720 H          12.7394    6.1721    5.8608 H     180  UNL180      0.1146
    721 N          12.0366    5.0845    9.3331 N.3   181  UNL181     -0.3437
    722 H          11.5924    5.8842    9.7820 H     181  UNL181      0.1146
    723 H          11.3178    4.6521    8.7546 H     181  UNL181      0.1146
    724 H          12.7227    5.4709    8.6863 H     181  UNL181      0.1146
    725 N          11.2245    5.4160   12.3272 N.3   182  UNL182     -0.3437
    726 H          10.7828    4.7015   11.7504 H     182  UNL182      0.1146
    727 H          11.9501    4.9382   12.8597 H     182  UNL182      0.1146
    728 H          11.7120    6.0360   11.6819 H     182  UNL182      0.1146
    729 N          11.5062    6.4452   14.4886 N.3   183  UNL183     -0.3437
    730 H          11.7086    5.4710   14.7084 H     183  UNL183      0.1146
    731 H          11.8449    6.9883   15.2815 H     183  UNL183      0.1146
    732 H          12.1098    6.6873   13.7041 H     183  UNL183      0.1146
    733 N          11.7245    5.0946   17.2042 N.3   184  UNL184     -0.3437
    734 H          11.2828    4.3911   17.7944 H     184  UNL184      0.1146
    735 H          12.4501    5.5253   17.7755 H     184  UNL184      0.1146
    736 H          12.2120    4.5807   16.4716 H     184  UNL184      0.1146
    737 N          11.8039    5.0582   22.5116 N.3   185  UNL185     -0.3437
    738 H          11.1911    5.8693   22.4412 H     185  UNL185      0.1146
    739 H          11.9812    4.7562   21.5546 H     185  UNL185      0.1146
    740 H          12.6934    5.4080   22.8650 H     185  UNL185      0.1146
    741 N          11.5111    6.2532   25.4354 N.3   186  UNL186     -0.3437
    742 H          10.6745    6.5383   25.9426 H     186  UNL186      0.1146
    743 H          11.2773    6.3234   24.4461 H     186  UNL186      0.1146
    744 H          12.2066    6.9769   25.6116 H     186  UNL186      0.1146
    745 N          11.7768    4.7807   27.9198 N.3   187  UNL187     -0.3437
    746 H          10.8809    4.5682   27.4833 H     187  UNL187      0.1146
    747 H          12.4297    4.0769   27.5781 H     187  UNL187      0.1146
    748 H          12.0822    5.6659   27.5179 H     187  UNL187      0.1146
    749 N          11.9363    6.3233   30.7051 N.3   188  UNL188     -0.3437
    750 H          12.4599    6.1568   29.8469 H     188  UNL188      0.1146
    751 H          11.0381    6.7082   30.4159 H     188  UNL188      0.1146
    752 H          11.7353    5.4034   31.0944 H     188  UNL188      0.1146
    753 N          13.8924    1.3857    1.8597 N.3   189  UNL189     -0.3437
    754 H          13.2877    1.2471    1.0513 H     189  UNL189      0.1146
    755 H          13.7687    0.5624    2.4474 H     189  UNL189      0.1146
    756 H          14.8474    1.3383    1.5075 H     189  UNL189      0.1146
    757 N          14.1312   -0.7720    4.0633 N.3   190  UNL190     -0.3437
    758 H          13.6895   -1.6190    4.4181 H     190  UNL190      0.1146
    759 H          14.8568   -0.5304    4.7367 H     190  UNL190      0.1146
    760 H          14.6187   -1.0452    3.2112 H     190  UNL190      0.1146
    761 N          13.4296   -0.7811    6.9879 N.3   191  UNL191     -0.3437
    762 H          13.6830    0.2025    6.9063 H     191  UNL191      0.1146
    763 H          13.5205   -1.1732    6.0518 H     191  UNL191      0.1146
    764 H          14.1632   -1.2148    7.5465 H     191  UNL191      0.1146
    765 N          14.0726    0.7358    9.2672 N.3   192  UNL192     -0.3437
    766 H          13.7080    1.1782   10.1096 H     192  UNL192      0.1146
    767 H          15.0805    0.8854    9.2851 H     192  UNL192      0.1146
    768 H          13.9352   -0.2659    9.3941 H     192  UNL192      0.1146
    769 N          14.1312   -0.3593   12.0856 N.3   193  UNL193     -0.3437
    770 H          13.6895   -1.0374   11.4664 H     193  UNL193      0.1146
    771 H          14.8568   -0.8686   12.5880 H     193  UNL193      0.1146
    772 H          14.6187    0.2988   11.4792 H     193  UNL193      0.1146
    773 N          14.0604    0.1059   15.1763 N.3   194  UNL194     -0.3437
    774 H          14.7923    0.3965   15.8230 H     194  UNL194      0.1146
    775 H          14.0584    0.7955   14.4261 H     194  UNL194      0.1146
    776 H          14.3852   -0.7642   14.7571 H     194  UNL194      0.1146
    777 N          14.6595   -0.9259   19.7001 N.3   195  UNL195     -0.3437
    778 H          14.8617    0.0578   19.5274 H     195  UNL195      0.1146
    779 H          15.1737   -1.4471   18.9914 H     195  UNL195      0.1146
    780 H          15.1014   -1.1514   20.5902 H     195  UNL195      0.1146
    781 N          13.9849    0.3359   22.1151 N.3   196  UNL196     -0.3437
    782 H          14.7110    0.6005   21.4508 H     196  UNL196      0.1146
    783 H          13.6390   -0.5715   21.8064 H     196  UNL196      0.1146
    784 H          14.4615    0.1685   23.0001 H     196  UNL196      0.1146
    785 N          13.9275    0.5444   25.4699 N.3   197  UNL197     -0.3437
    786 H          14.1113   -0.4155   25.1814 H     197  UNL197      0.1146
    787 H          14.6605    0.7826   26.1365 H     197  UNL197      0.1146
    788 H          14.0970    1.1221   24.6478 H     197  UNL197      0.1146
    789 N          14.1312   -0.7744   28.0907 N.3   198  UNL198     -0.3437
    790 H          13.6895   -0.0117   28.6021 H     198  UNL198      0.1146
    791 H          14.8568   -0.3455   27.5180 H     198  UNL198      0.1146
    792 H          14.6187   -1.3350   28.7882 H     198  UNL198      0.1146
    793 N          14.0624   -0.5647   30.9268 N.3   199  UNL199     -0.3437
    794 H          13.9546    0.4366   30.7709 H     199  UNL199      0.1146
    795 H          13.3336   -1.0149   30.3750 H     199  UNL199      0.1146
    796 H          14.9458   -0.8235   30.4897 H     199  UNL199      0.1146
    797 N          14.1998    3.1079   -0.5579 N.3   200  UNL200     -0.3437
    798 H          13.5842    3.2256   -1.3614 H     200  UNL200      0.1146
    799 H          13.6504    3.3737    0.2581 H     200  UNL200      0.1146
    800 H          14.3620    2.1055   -0.4728 H     200  UNL200      0.1146
    801 N          14.8333    2.5699    3.5610 N.3   201  UNL201     -0.3437
    802 H          15.6802    2.7930    3.0401 H     201  UNL201      0.1146
    803 H          15.0161    1.6824    4.0273 H     201  UNL201      0.1146
    804 H          14.7667    3.2673    4.3009 H     201  UNL201      0.1146
    805 N          14.1938    2.7160    6.2117 N.3   202  UNL202     -0.3437
    806 H          14.1190    2.3683    7.1666 H     202  UNL202      0.1146
    807 H          15.1899    2.7366    5.9974 H     202  UNL202      0.1146
    808 H          13.7936    1.9917    5.6169 H     202  UNL202      0.1146
    809 N          14.5062    3.0002    9.9830 N.3   203  UNL203     -0.3437
    810 H          14.0645    2.6338    9.1410 H     203  UNL203      0.1146
    811 H          15.2318    2.3302   10.2339 H     203  UNL203      0.1146
    812 H          14.9937    3.8485    9.6980 H     203  UNL203      0.1146
    813 N          14.0062    2.3373   12.3381 N.3   204  UNL204     -0.3437
    814 H          13.5645    2.9581   13.0147 H     204  UNL204      0.1146
    815 H          14.7318    2.8890   11.8825 H     204  UNL204      0.1146
    816 H          14.4937    1.6282   12.8839 H     204  UNL204      0.1146
    817 N          14.1056    3.3360   15.0689 N.3   205  UNL205     -0.3437
    818 H          14.9577    3.2452   15.6203 H     205  UNL205      0.1146
    819 H          14.3705    3.8389   14.2232 H     205  UNL205      0.1146
    820 H          13.8625    2.3926   14.7701 H     205  UNL205      0.1146
    821 N          13.0897    2.4527   17.5095 N.3   206  UNL206     -0.3437
    822 H          12.1021    2.6017   17.3077 H     206  UNL206      0.1146
    823 H          13.1228    1.7508   18.2476 H     206  UNL206      0.1146
    824 H          13.4817    2.0074   16.6810 H     206  UNL206      0.1146
    825 N          14.2562    2.7954   19.5432 N.3   207  UNL207     -0.3437
    826 H          13.8145    3.5581   20.0546 H     207  UNL207      0.1146
    827 H          14.9818    3.2243   18.9706 H     207  UNL207      0.1146
    828 H          14.7437    2.2348   20.2407 H     207  UNL207      0.1146
    829 N          14.1312    2.5855   22.2739 N.3   208  UNL208     -0.3437
    830 H          13.6895    1.9073   21.6547 H     208  UNL208      0.1146
    831 H          14.8568    2.0762   22.7763 H     208  UNL208      0.1146
    832 H          14.6187    3.2436   21.6675 H     208  UNL208      0.1146
    833 N          14.0062    3.1614   25.7763 N.3   209  UNL209     -0.3437
    834 H          13.5645    2.3915   26.2768 H     209  UNL209      0.1146
    835 H          14.7318    3.5195   26.3957 H     209  UNL209      0.1146
    836 H          14.4937    2.7402   24.9868 H     209  UNL209      0.1146
    837 N          14.2789    2.4602   28.2973 N.3   210  UNL210     -0.3437
    838 H          14.8626    3.1185   28.8114 H     210  UNL210      0.1146
    839 H          14.9167    1.7771   27.8911 H     210  UNL210      0.1146
    840 H          13.7381    1.9569   28.9991 H     210  UNL210      0.1146
    841 N          14.1312    2.2109   31.8645 N.3   211  UNL211     -0.3437
    842 H          13.6895    1.9984   30.9711 H     211  UNL211      0.1146
    843 H          14.8568    1.5072   31.9935 H     211  UNL211      0.1146
    844 H          14.6187    3.0961   31.7333 H     211  UNL211      0.1146
    845 N          14.6757    6.4548   -0.3683 N.3   212  UNL212     -0.3437
    846 H          14.4722    5.4592   -0.4442 H     212  UNL212      0.1146
    847 H          14.8396    6.7813   -1.3195 H     212  UNL212      0.1146
    848 H          13.8088    6.8964   -0.0652 H     212  UNL212      0.1146
    849 N          14.2562    4.5489    1.9644 N.3   213  UNL213     -0.3437
    850 H          13.8145    5.4508    1.7916 H     213  UNL213      0.1146
    851 H          14.9818    4.4512    1.2556 H     213  UNL213      0.1146
    852 H          14.7437    4.6408    2.8545 H     213  UNL213      0.1146
    853 N          14.3087    5.1844    7.0938 N.3   214  UNL214     -0.3437
    854 H          15.0704    4.8568    7.6861 H     214  UNL214      0.1146
    855 H          14.3967    6.1990    7.0585 H     214  UNL214      0.1146
    856 H          14.5204    4.8514    6.1542 H     214  UNL214      0.1146
    857 N          14.2174    5.4240   11.6338 N.3   215  UNL215     -0.3437
    858 H          13.2679    5.1644   11.3703 H     215  UNL215      0.1146
    859 H          14.5215    4.7264   12.3116 H     215  UNL215      0.1146
    860 H          14.7895    5.2768   10.8035 H     215  UNL215      0.1146
    861 N          14.0795    6.2791   14.7093 N.3   216  UNL216     -0.3437
    862 H          14.4450    5.7325   13.9308 H     216  UNL216      0.1146
    863 H          13.4133    5.6749   15.1884 H     216  UNL216      0.1146
    864 H          14.8585    6.4051   15.3541 H     216  UNL216      0.1146
    865 N          14.5062    4.5495   17.2957 N.3   217  UNL217     -0.3437
    866 H          14.0645    5.4602   17.1781 H     217  UNL217      0.1146
    867 H          15.2318    4.4950   16.5823 H     217  UNL217      0.1146
    868 H          14.9937    4.5871   18.1897 H     217  UNL217      0.1146
    869 N          14.2562    5.6557   21.8170 N.3   218  UNL218     -0.3437
    870 H          13.8145    5.4432   20.9236 H     218  UNL218      0.1146
    871 H          14.9818    4.9519   21.9460 H     218  UNL218      0.1146
    872 H          14.7437    6.5409   21.6858 H     218  UNL218      0.1146
    873 N          14.2562    5.6600   24.5102 N.3   219  UNL219     -0.3437
    874 H          13.8145    5.7927   25.4189 H     219  UNL219      0.1146
    875 H          14.9818    6.3724   24.4439 H     219  UNL219      0.1146
    876 H          14.7437    4.7667   24.5627 H     219  UNL219      0.1146
    877 N          14.2888    6.2212   27.7156 N.3   220  UNL220     -0.3437
    878 H          13.5255    6.5501   28.3050 H     220  UNL220      0.1146
    879 H          15.1415    6.6066   28.1191 H     220  UNL220      0.1146
    880 H          14.3406    5.2137   27.8593 H     220  UNL220      0.1146
    881 N          14.6057    5.4057   30.6050 N.3   221  UNL221     -0.3437
    882 H          13.9577    5.1932   31.3621 H     221  UNL221      0.1146
    883 H          14.4393    4.7019   29.8870 H     221  UNL221      0.1146
    884 H          14.2936    6.2909   30.2082 H     221  UNL221      0.1146
    885 N          16.6239   -0.3289    1.8777 N.3   222  UNL222     -0.3437
    886 H          17.4738   -0.2305    2.4311 H     222  UNL222      0.1146
    887 H          16.4747    0.5738    1.4291 H     222  UNL222      0.1146
    888 H          16.8507   -0.9808    1.1281 H     222  UNL222      0.1146
    889 N          15.9181   -0.1441    7.0357 N.3   223  UNL223     -0.3437
    890 H          16.8803    0.1465    6.8683 H     223  UNL223      0.1146
    891 H          15.3311    0.5455    6.5685 H     223  UNL223      0.1146
    892 H          15.7937   -1.0142    6.5201 H     223  UNL223      0.1146
    893 N          16.5379   -0.9843    9.5697 N.3   224  UNL224     -0.3437
    894 H          16.0962   -1.6624    8.9506 H     224  UNL224      0.1146
    895 H          17.2635   -1.4936   10.0722 H     224  UNL224      0.1146
    896 H          17.0254   -0.3262    8.9634 H     224  UNL224      0.1146
    897 N          16.6629    0.7309   11.5575 N.3   225  UNL225     -0.3437
    898 H          16.2212    1.0215   12.4286 H     225  UNL225      0.1146
    899 H          17.3885    1.4205   11.3668 H     225  UNL225      0.1146
    900 H          17.1504   -0.1392   11.7664 H     225  UNL225      0.1146
    901 N          16.6666   -1.1284   14.2992 N.3   226  UNL226     -0.3437
    902 H          15.9703   -0.4148   14.0886 H     226  UNL226      0.1146
    903 H          17.5585   -0.7535   13.9793 H     226  UNL226      0.1146
    904 H          16.7278   -1.1699   15.3155 H     226  UNL226      0.1146
    905 N          16.2879   -0.2970   17.4225 N.3   227  UNL227     -0.3437
    906 H          15.8462   -1.1688   17.1340 H     227  UNL227      0.1146
    907 H          17.0135   -0.5570   18.0891 H     227  UNL227      0.1146
    908 H          16.7754    0.0563   16.6004 H     227  UNL227      0.1146
    909 N          17.2390    0.9568   20.3261 N.3   228  UNL228     -0.3437
    910 H          17.0917    1.4085   19.4246 H     228  UNL228      0.1146
    911 H          16.4385    1.2126   20.9025 H     228  UNL228      0.1146
    912 H          17.1539   -0.0443   20.1559 H     228  UNL228      0.1146
    913 N          16.6629   -0.6089   22.9420 N.3   229  UNL229     -0.3437
    914 H          16.2212   -0.8213   22.0486 H     229  UNL229      0.1146
    915 H          17.3885   -1.3126   23.0710 H     229  UNL229      0.1146
    916 H          17.1504    0.2763   22.8108 H     229  UNL229      0.1146
    917 N          16.5379    0.5780   25.4699 N.3   230  UNL230     -0.3437
    918 H          16.0962   -0.2938   25.1814 H     230  UNL230      0.1146
    919 H          17.2635    0.3180   26.1365 H     230  UNL230      0.1146
    920 H          17.0254    0.9313   24.6478 H     230  UNL230      0.1146
    921 N          16.6250   -0.8905   28.3590 N.3   231  UNL231     -0.3437
    922 H          16.8473   -1.1559   27.4006 H     231  UNL231      0.1146
    923 H          17.4784   -1.0370   28.8962 H     231  UNL231      0.1146
    924 H          16.4725    0.1169   28.3432 H     231  UNL231      0.1146
    925 N          16.6629    0.8552   31.1094 N.3   232  UNL232     -0.3437
    926 H          16.2212   -0.0109   31.4144 H     232  UNL232      0.1146
    927 H          17.3885    1.0573   31.7957 H     232  UNL232      0.1146
    928 H          17.1504    0.6319   30.2429 H     232  UNL232      0.1146
    929 N          16.6629    2.6973    0.6905 N.3   233  UNL233     -0.3437
    930 H          16.2212    2.5395   -0.2142 H     233  UNL233      0.1146
    931 H          17.3885    1.9870    0.7764 H     233  UNL233      0.1146
    932 H          17.1504    3.5888    0.6133 H     233  UNL233      0.1146
    933 N          17.0080    0.7743    4.6812 N.3   234  UNL234     -0.3437
    934 H          16.8271    0.8779    3.6838 H     234  UNL234      0.1146
    935 H          16.3137    1.3512    5.1540 H     234  UNL234      0.1146
    936 H          16.7743   -0.1907    4.9103 H     234  UNL234      0.1146
    937 N          17.0594    3.5934    6.3023 N.3   235  UNL235     -0.3437
    938 H          17.1609    4.1073    7.1764 H     235  UNL235      0.1146
    939 H          18.0053    3.4366    5.9572 H     235  UNL235      0.1146
    940 H          16.6975    2.6754    6.5566 H     235  UNL235      0.1146
    941 N          16.7583    2.3359    8.5374 N.3   236  UNL236     -0.3437
    942 H          16.7088    2.1234    9.5328 H     236  UNL236      0.1146
    943 H          16.1875    1.6322    8.0712 H     236  UNL236      0.1146
    944 H          16.2686    3.2211    8.4145 H     236  UNL236      0.1146
    945 N          16.8005    3.1661   12.7900 N.3   237  UNL237     -0.3437
    946 H          15.8052    3.3350   12.9287 H     237  UNL237      0.1146
    947 H          17.0370    3.5977   11.8977 H     237  UNL237      0.1146
    948 H          17.2804    3.7138   13.5028 H     237  UNL237      0.1146
    949 N          17.0329    2.0913   15.3792 N.3   238  UNL238     -0.3437
    950 H          16.1130    1.6531   15.3668 H     238  UNL238      0.1146
    951 H          17.4105    1.9784   14.4395 H     238  UNL238      0.1146
    952 H          16.8667    3.0898   15.4970 H     238  UNL238      0.1146
    953 N          16.3402    2.3359   17.8565 N.3   239  UNL239     -0.3437
    954 H          15.4443    2.1234   17.4200 H     239  UNL239      0.1146
    955 H          16.9931    1.6322   17.5148 H     239  UNL239      0.1146
    956 H          16.6456    3.2211   17.4546 H     239  UNL239      0.1146
    957 N          16.8903    3.8355   19.8289 N.3   240  UNL240     -0.3437
    958 H          17.6332    3.1573   19.6660 H     240  UNL240      0.1146
    959 H          16.1432    3.3262   20.2988 H     240  UNL240      0.1146
    960 H          17.2564    4.4936   20.5154 H     240  UNL240      0.1146
    961 N          16.5379    3.0506   22.3708 N.3   241  UNL241     -0.3437
    962 H          16.0962    3.3412   23.2419 H     241  UNL241      0.1146
    963 H          17.2635    3.7402   22.1801 H     241  UNL241      0.1146
    964 H          17.0254    2.1805   22.5797 H     241  UNL241      0.1146
    965 N          17.1287    3.4403   25.4747 N.3   242  UNL242     -0.3437
    966 H          16.4732    4.1283   25.1069 H     242  UNL242      0.1146
    967 H          17.3239    2.7996   24.7067 H     242  UNL242      0.1146
    968 H          17.9973    3.9444   25.6475 H     242  UNL242      0.1146
    969 N          17.4518    2.3973   27.7781 N.3   243  UNL243     -0.3437
    970 H          17.6958    1.6064   27.1837 H     243  UNL243      0.1146
    971 H          16.6152    2.8096   27.3676 H     243  UNL243      0.1146
    972 H          17.1603    1.9993   28.6696 H     243  UNL243      0.1146
    973 N          16.5379    3.2727   30.3766 N.3   244  UNL244     -0.3437
    974 H          16.0962    2.4009   30.0881 H     244  UNL244      0.1146
    975 H          17.2635    3.0128   31.0432 H     244  UNL244      0.1146
    976 H          17.0254    3.6261   29.5545 H     244  UNL244      0.1146
    977 N          16.6481    5.0698    3.7024 N.3   245  UNL245     -0.3437
    978 H          16.1133    5.6243    4.3696 H     245  UNL245      0.1146
    979 H          17.6272    5.2989    3.8678 H     245  UNL245      0.1146
    980 H          16.5345    4.0987    3.9895 H     245  UNL245      0.1146
    981 N          16.7879    6.3446    6.5159 N.3   246  UNL246     -0.3437
    982 H          16.3462    5.6411    7.1061 H     246  UNL246      0.1146
    983 H          17.5135    6.7753    7.0872 H     246  UNL246      0.1146
    984 H          17.2754    5.8307    5.7833 H     246  UNL246      0.1146
    985 N          16.9022    5.2190    9.5501 N.3   247  UNL247     -0.3437
    986 H          16.4778    5.9619   10.1036 H     247  UNL247      0.1146
    987 H          16.1306    4.7271    9.1016 H     247  UNL247      0.1146
    988 H          17.4125    5.6837    8.8005 H     247  UNL247      0.1146
    989 N          16.6629    5.7258   12.0597 N.3   248  UNL248     -0.3437
    990 H          16.2212    4.9877   12.6061 H     248  UNL248      0.1146
    991 H          17.3885    6.1209   12.6562 H     248  UNL248      0.1146
    992 H          17.1504    5.2574   11.2973 H     248  UNL248      0.1146
    993 N          16.8297    5.2340   15.0772 N.3   249  UNL249     -0.3437
    994 H          16.0145    4.7208   14.7450 H     249  UNL249      0.1146
    995 H          17.6291    4.6206   14.9248 H     249  UNL249      0.1146
    996 H          16.9498    6.0164   14.4355 H     249  UNL249      0.1146
    997 N          17.0379    5.0495   17.5457 N.3   250  UNL250     -0.3437
    998 H          16.5962    5.9602   17.4281 H     250  UNL250      0.1146
    999 H          17.7635    4.9950   16.8323 H     250  UNL250      0.1146
   1000 H          17.5254    5.0871   18.4397 H     250  UNL250      0.1146
   1001 N          16.7879    6.3425   19.9383 N.3   251  UNL251     -0.3437
   1002 H          16.3462    5.4707   19.6498 H     251  UNL251      0.1146
   1003 H          17.5135    6.0826   20.6049 H     251  UNL251      0.1146
   1004 H          17.2754    6.6959   19.1162 H     251  UNL251      0.1146
   1005 N          17.0379    5.5307   23.5670 N.3   252  UNL252     -0.3437
   1006 H          16.5962    5.3182   22.6736 H     252  UNL252      0.1146
   1007 H          17.7635    4.8269   23.6960 H     252  UNL252      0.1146
   1008 H          17.5254    6.4159   23.4358 H     252  UNL252      0.1146
   1009 N          16.6629    5.1557   27.9736 N.3   253  UNL253     -0.3437
   1010 H          16.2212    4.9432   27.0803 H     253  UNL253      0.1146
   1011 H          17.3885    4.4519   28.1027 H     253  UNL253      0.1146
   1012 H          17.1504    6.0409   27.8424 H     253  UNL253      0.1146
   1013 N          16.7301    6.3912   30.5379 N.3   254  UNL254     -0.3437
   1014 H          16.8524    6.5351   31.5392 H     254  UNL254      0.1146
   1015 H          17.5606    6.7813   30.0946 H     254  UNL254      0.1146
   1016 H          16.7800    5.3841   30.3907 H     254  UNL254      0.1146
   1017 N          19.3887    0.0881    1.3275 N.3   255  UNL255     -0.3437
   1018 H          18.5299    0.4965    0.9614 H     255  UNL255      0.1146
   1019 H          20.1492    0.5111    0.7972 H     255  UNL255      0.1146
   1020 H          19.4822    0.4378    2.2800 H     255  UNL255      0.1146
   1021 N          19.1582   -1.1120    3.8398 N.3   256  UNL256     -0.3437
   1022 H          19.2859   -1.4952    4.7753 H     256  UNL256      0.1146
   1023 H          19.0631   -0.1045    3.9595 H     256  UNL256      0.1146
   1024 H          20.0428   -1.2548    3.3546 H     256  UNL256      0.1146
   1025 N          18.5262   -0.9491    7.1634 N.3   257  UNL257     -0.3437
   1026 H          17.9048   -1.4094    7.8269 H     257  UNL257      0.1146
   1027 H          19.4324   -1.4040    7.2652 H     257  UNL257      0.1146
   1028 H          18.1865   -1.2040    6.2371 H     257  UNL257      0.1146
   1029 N          19.0134    0.1002    9.3840 N.3   258  UNL258     -0.3437
   1030 H          19.1305    0.4785   10.3229 H     258  UNL258      0.1146
   1031 H          19.8498    0.3678    8.8670 H     258  UNL258      0.1146
   1032 H          19.0562   -0.9131    9.4821 H     258  UNL258      0.1146
   1033 N          19.3196   -0.7676   12.2758 N.3   259  UNL259     -0.3437
   1034 H          18.8779   -1.6644   12.4734 H     259  UNL259      0.1146
   1035 H          20.0452   -0.6503   12.9816 H     259  UNL259      0.1146
   1036 H          19.8071   -0.8841   11.3885 H     259  UNL259      0.1146
   1037 N          19.0696    0.3559   14.8233 N.3   260  UNL260     -0.3437
   1038 H          18.6279    0.6465   15.6944 H     260  UNL260      0.1146
   1039 H          19.7952    1.0455   14.6326 H     260  UNL260      0.1146
   1040 H          19.5571   -0.5142   15.0322 H     260  UNL260      0.1146
   1041 N          18.8585   -1.6178   16.8430 N.3   261  UNL261     -0.3437
   1042 H          18.7317   -0.6075   16.8819 H     261  UNL261      0.1146
   1043 H          19.8622   -1.7719   16.7578 H     261  UNL261      0.1146
   1044 H          18.5975   -1.9693   17.7631 H     261  UNL261      0.1146
   1045 N          19.2847   -0.9259   19.3984 N.3   262  UNL262     -0.3437
   1046 H          19.5504    0.0578   19.3855 H     262  UNL262      0.1146
   1047 H          20.1250   -1.4471   19.1523 H     262  UNL262      0.1146
   1048 H          19.0898   -1.1514   20.3729 H     262  UNL262      0.1146
   1049 N          19.2409   -0.2056   22.4541 N.3   263  UNL263     -0.3437
   1050 H          19.4247   -1.1655   22.1656 H     263  UNL263      0.1146
   1051 H          19.9739    0.0326   23.1207 H     263  UNL263      0.1146
   1052 H          19.4104    0.3721   21.6320 H     263  UNL263      0.1146
   1053 N          19.0980   -1.1089   25.2931 N.3   264  UNL264     -0.3437
   1054 H          19.2950   -1.3213   24.3162 H     264  UNL264      0.1146
   1055 H          19.5931   -1.8126   25.8390 H     264  UNL264      0.1146
   1056 H          19.5639   -0.2237   25.4875 H     264  UNL264      0.1146
   1057 N          18.9829    0.0491   28.1710 N.3   265  UNL265     -0.3437
   1058 H          19.1854    0.2197   27.1870 H     265  UNL265      0.1146
   1059 H          19.6606   -0.6460   28.4808 H     265  UNL265      0.1146
   1060 H          19.2209    0.9107   28.6602 H     265  UNL265      0.1146
   1061 N          19.1946   -0.9656   30.7634 N.3   266  UNL266     -0.3437
   1062 H          18.7529   -0.0637   30.5907 H     266  UNL266      0.1146
   1063 H          19.9202   -1.0634   30.0547 H     266  UNL266      0.1146
   1064 H          19.6821   -0.8737   31.6535 H     266  UNL266      0.1146
   1065 N          19.2282    3.1305   -0.4715 N.3   267  UNL267     -0.3437
   1066 H          19.4386    2.1363   -0.5465 H     267  UNL267      0.1146
   1067 H          19.8607    3.4987    0.2376 H     267  UNL267      0.1146
   1068 H          19.5223    3.5471   -1.3537 H     267  UNL267      0.1146
   1069 N          18.4174    2.7217    2.4530 N.3   268  UNL268     -0.3437
   1070 H          17.9065    3.3367    3.0847 H     268  UNL268      0.1146
   1071 H          19.4005    2.9711    2.5523 H     268  UNL268      0.1146
   1072 H          18.3255    1.7832    2.8393 H     268  UNL268      0.1146
   1073 N          19.4973    1.7109    4.7429 N.3   269  UNL269     -0.3437
   1074 H          20.2507    1.4984    4.0905 H     269  UNL269      0.1146
   1075 H          19.5550    1.0072    5.4776 H     269  UNL269      0.1146
   1076 H          19.7469    2.5961    5.1816 H     269  UNL269      0.1146
   1077 N          19.4154    2.1843    7.6827 N.3   270  UNL270     -0.3437
   1078 H          19.1153    3.1078    7.3737 H     270  UNL270      0.1146
   1079 H          18.7321    1.5273    7.3087 H     270  UNL270      0.1146
   1080 H          20.2871    1.9932    7.1908 H     270  UNL270      0.1146
   1081 N          18.6479    3.8178   10.0345 N.3   271  UNL271     -0.3437
   1082 H          18.3826    2.9521   10.5018 H     271  UNL271      0.1146
   1083 H          19.6668    3.8274   10.0183 H     271  UNL271      0.1146
   1084 H          18.3526    3.7154    9.0646 H     271  UNL271      0.1146
   1085 N          19.1392    2.3067   12.5481 N.3   272  UNL272     -0.3437
   1086 H          19.5553    2.9612   13.2091 H     272  UNL272      0.1146
   1087 H          19.8631    2.1038   11.8603 H     272  UNL272      0.1146
   1088 H          18.9923    1.4409   13.0650 H     272  UNL272      0.1146
   1089 N          19.0696    3.5674   15.4937 N.3   273  UNL273     -0.3437
   1090 H          18.6279    3.2644   16.3606 H     273  UNL273      0.1146
   1091 H          19.7952    4.2296   15.7647 H     273  UNL273      0.1146
   1092 H          19.5571    2.7513   15.1268 H     273  UNL273      0.1146
   1093 N          19.4688    1.6305   17.9011 N.3   274  UNL274     -0.3437
   1094 H          18.5492    1.2583   18.1337 H     274  UNL274      0.1146
   1095 H          19.6832    1.2857   16.9665 H     274  UNL274      0.1146
   1096 H          19.3486    2.6381   17.8078 H     274  UNL274      0.1146
   1097 N          19.1689    2.7864   22.2607 N.3   275  UNL275     -0.3437
   1098 H          18.5733    2.0165   21.9592 H     275  UNL275      0.1146
   1099 H          18.7520    3.1445   23.1188 H     275  UNL275      0.1146
   1100 H          20.0557    2.3652   22.5338 H     275  UNL275      0.1146
   1101 N          19.5137    1.5481   24.7488 N.3   276  UNL276     -0.3437
   1102 H          19.6661    2.5218   24.4896 H     276  UNL276      0.1146
   1103 H          19.0104    1.5688   25.6346 H     276  UNL276      0.1146
   1104 H          18.8596    1.1740   24.0628 H     276  UNL276      0.1146
   1105 N          19.8525    2.9059   27.6209 N.3   277  UNL277     -0.3437
   1106 H          19.3042    2.9293   28.4795 H     277  UNL277      0.1146
   1107 H          20.2068    1.9539   27.5397 H     277  UNL277      0.1146
   1108 H          19.1863    3.0235   26.8589 H     277  UNL277      0.1146
   1109 N          19.4514    1.9767   31.0543 N.3   278  UNL278     -0.3437
   1110 H          19.1895    2.5725   30.2702 H     278  UNL278      0.1146
   1111 H          20.4071    1.6746   30.8705 H     278  UNL278      0.1146
   1112 H          19.5019    2.5888   31.8674 H     278  UNL278      0.1146
   1113 N          19.0696    5.2671    1.7734 N.3   279  UNL279     -0.3437
   1114 H          18.6279    5.6455    0.9367 H     279  UNL279      0.1146
   1115 H          19.7952    4.6315    1.4450 H     279  UNL279      0.1146
   1116 H          19.5571    6.0476    2.2110 H     279  UNL279      0.1146
   1117 N          19.8196    4.7175    4.4683 N.3   280  UNL280     -0.3437
   1118 H          19.3779    3.8457    4.1798 H     280  UNL280      0.1146
   1119 H          20.5452    4.4576    5.1349 H     280  UNL280      0.1146
   1120 H          20.3071    5.0709    3.6462 H     280  UNL280      0.1146
   1121 N          19.5696    5.6247    6.7052 N.3   281  UNL281     -0.3437
   1122 H          19.1279    6.3564    7.2600 H     281  UNL281      0.1146
   1123 H          20.2952    6.0861    6.1584 H     281  UNL281      0.1146
   1124 H          20.0571    5.0246    7.3690 H     281  UNL281      0.1146
   1125 N          19.6219    5.2000   12.2202 N.3   282  UNL282     -0.3437
   1126 H          20.5172    4.8695   12.5772 H     282  UNL282      0.1146
   1127 H          19.8250    5.6575   11.3325 H     282  UNL282      0.1146
   1128 H          19.0859    4.3647   11.9894 H     282  UNL282      0.1146
   1129 N          19.3539    6.3345   14.2289 N.3   283  UNL283     -0.3437
   1130 H          19.0451    5.3648   14.1765 H     283  UNL283      0.1146
   1131 H          18.5214    6.9028   14.0794 H     283  UNL283      0.1146
   1132 H          19.6294    6.4895   15.1977 H     283  UNL283      0.1146
   1133 N          19.4359    6.2115   17.6527 N.3   284  UNL284     -0.3437
   1134 H          18.6888    6.8601   17.4086 H     284  UNL284      0.1146
   1135 H          19.6851    5.7320   16.7887 H     284  UNL284      0.1146
   1136 H          20.2401    6.7881   17.8958 H     284  UNL284      0.1146
   1137 N          19.1723    4.6557   19.4997 N.3   285  UNL285     -0.3437
   1138 H          20.0844    4.4432   19.0980 H     285  UNL285      0.1146
   1139 H          19.0114    3.9519   20.2189 H     285  UNL285      0.1146
   1140 H          19.2818    5.5409   19.9925 H     285  UNL285      0.1146
   1141 N          19.2835    5.6626   22.3423 N.3   286  UNL286     -0.3437
   1142 H          19.8000    6.2534   21.6922 H     286  UNL286      0.1146
   1143 H          19.0021    4.8397   21.8113 H     286  UNL286      0.1146
   1144 H          19.9643    5.3360   23.0266 H     286  UNL286      0.1146
   1145 N          19.6506    5.3853   25.3449 N.3   287  UNL287     -0.3437
   1146 H          20.3832    4.7384   25.0564 H     287  UNL287      0.1146
   1147 H          20.0848    6.0221   26.0115 H     287  UNL287      0.1146
   1148 H          19.4313    5.9460   24.5228 H     287  UNL287      0.1146
   1149 N          19.3552    5.1611   28.0986 N.3   288  UNL288     -0.3437
   1150 H          19.1357    4.7228   27.2053 H     288  UNL288      0.1146
   1151 H          20.3597    5.0482   28.2277 H     288  UNL288      0.1146
   1152 H          19.1994    6.1596   27.9674 H     288  UNL288      0.1146
   1153 N          18.9446    5.1090   30.9724 N.3   289  UNL289     -0.3437
   1154 H          18.5029    4.5958   30.2109 H     289  UNL289      0.1146
   1155 H          19.6702    4.4956   31.3408 H     289  UNL289      0.1146
   1156 H          19.4321    5.8914   30.5382 H     289  UNL289      0.1146
   1157 N          22.4220   -0.7053   -0.7952 N.3   290  UNL290     -0.3437
   1158 H          22.9117   -1.4560   -1.2800 H     290  UNL290      0.1146
   1159 H          23.1064    0.0384   -0.6651 H     290  UNL290      0.1146
   1160 H          21.7367   -0.3437   -1.4570 H     290  UNL290      0.1146
   1161 N          22.0249    0.7126    1.3074 N.3   291  UNL291     -0.3437
   1162 H          22.1478   -0.2916    1.4291 H     291  UNL291      0.1146
   1163 H          21.1943    0.9609    1.8429 H     291  UNL291      0.1146
   1164 H          22.8097    1.1517    1.7867 H     291  UNL291      0.1146
   1165 N          21.9690    0.5631    3.8850 N.3   292  UNL292     -0.3437
   1166 H          22.1391    1.0637    4.7561 H     292  UNL292      0.1146
   1167 H          22.8190    0.0344    3.6943 H     292  UNL292      0.1146
   1168 H          21.2496   -0.1277    4.0939 H     292  UNL292      0.1146
   1169 N          21.3215   -0.2009    6.7370 N.3   293  UNL293     -0.3437
   1170 H          20.3371   -0.0303    6.9374 H     293  UNL293      0.1146
   1171 H          21.3402   -0.8960    5.9922 H     293  UNL293      0.1146
   1172 H          21.6779    0.6607    6.3260 H     293  UNL293      0.1146
   1173 N          22.1013    0.7166   11.6972 N.3   294  UNL294     -0.3437
   1174 H          21.6596   -0.0533   12.1977 H     294  UNL294      0.1146
   1175 H          22.8269    1.0747   12.3166 H     294  UNL294      0.1146
   1176 H          22.5888    0.2954   10.9077 H     294  UNL294      0.1146
   1177 N          22.2032   -0.4386   14.5950 N.3   295  UNL295     -0.3437
   1178 H          21.7433    0.0616   13.8357 H     295  UNL295      0.1146
   1179 H          21.4636   -0.9259   15.0989 H     295  UNL295      0.1146
   1180 H          22.7666   -1.1636   14.1530 H     295  UNL295      0.1146
   1181 N          22.2402    0.0589   17.4135 N.3   296  UNL296     -0.3437
   1182 H          22.2127   -0.9267   17.6708 H     296  UNL296      0.1146
   1183 H          22.8998    0.1289   16.6399 H     296  UNL296      0.1146
   1184 H          21.3241    0.2724   17.0216 H     296  UNL296      0.1146
   1185 N          22.0687    0.1291   20.0724 N.3   297  UNL297     -0.3437
   1186 H          21.3717   -0.6135   20.1031 H     297  UNL297      0.1146
   1187 H          22.3577    0.2833   21.0373 H     297  UNL297      0.1146
   1188 H          22.8787   -0.2654   19.5963 H     297  UNL297      0.1146
   1189 N          21.7828   -1.1034   22.7990 N.3   298  UNL298     -0.3437
   1190 H          22.1556   -1.5417   21.9580 H     298  UNL298      0.1146
   1191 H          22.4985   -1.2163   23.5155 H     298  UNL298      0.1146
   1192 H          21.7398   -0.1050   22.5999 H     298  UNL298      0.1146
   1193 N          21.8345    0.0780   25.5647 N.3   299  UNL299     -0.3437
   1194 H          21.3086   -0.7938   25.6066 H     299  UNL299      0.1146
   1195 H          22.8163   -0.1820   25.6482 H     299  UNL299      0.1146
   1196 H          21.7173    0.4313   24.6161 H     299  UNL299      0.1146
   1197 N          21.7263   -1.1853   28.2374 N.3   300  UNL300     -0.3437
   1198 H          21.2846   -0.4984   27.6279 H     300  UNL300      0.1146
   1199 H          22.4519   -1.6316   27.6782 H     300  UNL300      0.1146
   1200 H          22.2138   -0.6513   28.9555 H     300  UNL300      0.1146
   1201 N          22.1013    0.7030   31.0016 N.3   301  UNL301     -0.3437
   1202 H          21.6596   -0.1688   30.7131 H     301  UNL301      0.1146
   1203 H          22.8269    0.4430   31.6682 H     301  UNL301      0.1146
   1204 H          22.5888    1.0563   30.1795 H     301  UNL301      0.1146
   1205 N          22.1207    2.2579   -0.5054 N.3   302  UNL302     -0.3437
   1206 H          21.7224    2.7585    0.2878 H     302  UNL302      0.1146
   1207 H          22.9098    1.7292   -0.1363 H     302  UNL302      0.1146
   1208 H          21.4238    1.5671   -0.7801 H     302  UNL302      0.1146
   1209 N          21.7263    2.9811    2.9530 N.3   303  UNL303     -0.3437
   1210 H          21.2846    3.8973    2.8910 H     303  UNL303      0.1146
   1211 H          22.4519    2.9701    2.2376 H     303  UNL303      0.1146
   1212 H          22.2138    2.9642    3.8477 H     303  UNL303      0.1146
   1213 N          22.6610    3.0746    6.5090 N.3   304  UNL304     -0.3437
   1214 H          21.6814    3.3255    6.3828 H     304  UNL304      0.1146
   1215 H          23.1405    3.9358    6.7673 H     304  UNL304      0.1146
   1216 H          22.6939    2.4767    7.3335 H     304  UNL304      0.1146
   1217 N          21.6031    1.9228    9.5663 N.3   305  UNL305     -0.3437
   1218 H          22.3279    2.3394   10.1488 H     305  UNL305      0.1146
   1219 H          20.7330    2.0203   10.0877 H     305  UNL305      0.1146
   1220 H          21.5127    2.5301    8.7531 H     305  UNL305      0.1146
   1221 N          21.6261    3.3180   12.5700 N.3   306  UNL306     -0.3437
   1222 H          21.4160    2.5737   13.2336 H     306  UNL306      0.1146
   1223 H          22.6212    3.5124   12.6718 H     306  UNL306      0.1146
   1224 H          21.5133    2.9085   11.6438 H     306  UNL306      0.1146
   1225 N          21.6806    2.4503   15.4435 N.3   307  UNL307     -0.3437
   1226 H          21.4366    3.2922   14.9237 H     307  UNL307      0.1146
   1227 H          21.3611    1.6670   14.8754 H     307  UNL307      0.1146
   1228 H          22.6985    2.4031   15.4398 H     307  UNL307      0.1146
   1229 N          22.2593    2.3947   18.4896 N.3   308  UNL308     -0.3437
   1230 H          22.4704    2.4545   17.4945 H     308  UNL308      0.1146
   1231 H          22.8846    1.6841   18.8671 H     308  UNL308      0.1146
   1232 H          22.5624    3.2793   18.8946 H     308  UNL308      0.1146
   1233 N          20.6013    2.5859   20.4262 N.3   309  UNL309     -0.3437
   1234 H          20.1596    2.3734   19.5328 H     309  UNL309      0.1146
   1235 H          21.3269    1.8822   20.5552 H     309  UNL309      0.1146
   1236 H          21.0888    3.4711   20.2950 H     309  UNL309      0.1146
   1237 N          21.9763    3.4256   22.2458 N.3   310  UNL310     -0.3437
   1238 H          21.5346    3.7162   23.1169 H     310  UNL310      0.1146
   1239 H          22.7019    4.1152   22.0551 H     310  UNL310      0.1146
   1240 H          22.4638    2.5555   22.4547 H     310  UNL310      0.1146
   1241 N          21.8513    3.1756   25.0116 N.3   311  UNL311     -0.3437
   1242 H          21.4096    3.4662   25.8827 H     311  UNL311      0.1146
   1243 H          22.5769    3.8652   24.8209 H     311  UNL311      0.1146
   1244 H          22.3388    2.3055   25.2205 H     311  UNL311      0.1146
   1245 N          22.4763    1.4863   27.3187 N.3   312  UNL312     -0.3437
   1246 H          22.0346    2.4032   27.3684 H     312  UNL312      0.1146
   1247 H          23.2019    1.5622   26.6072 H     312  UNL312      0.1146
   1248 H          22.9638    1.3609   28.2047 H     312  UNL312      0.1146
   1249 N          21.7263    3.3977   29.5016 N.3   313  UNL313     -0.3437
   1250 H          21.2846    2.5259   29.2131 H     313  UNL313      0.1146
   1251 H          22.4519    3.1378   30.1682 H     313  UNL313      0.1146
   1252 H          22.2138    3.7511   28.6795 H     313  UNL313      0.1146
   1253 N          21.5098    6.3463    1.3078 N.3   314  UNL314     -0.3437
   1254 H          21.9406    6.7980    2.1133 H     314  UNL314      0.1146
   1255 H          22.0810    6.6021    0.5036 H     314  UNL314      0.1146
   1256 H          21.6453    5.3452    1.4414 H     314  UNL314      0.1146
   1257 N          22.6493    5.4468    4.1720 N.3   315  UNL315     -0.3437
   1258 H          21.7557    5.9300    4.2516 H     315  UNL315      0.1146
   1259 H          22.5849    4.6345    4.7839 H     315  UNL315      0.1146
   1260 H          22.6868    5.0804    3.2219 H     315  UNL315      0.1146
   1261 N          21.6761    4.7894    9.5132 N.3   316  UNL316     -0.3437
   1262 H          20.9372    4.5251    8.8631 H     316  UNL316      0.1146
   1263 H          22.3227    5.3709    8.9822 H     316  UNL316      0.1146
   1264 H          21.2407    5.4063   10.1975 H     316  UNL316      0.1146
   1265 N          22.1013    6.2821   12.2131 N.3   317  UNL317     -0.3437
   1266 H          21.6596    6.9029   12.8897 H     317  UNL317      0.1146
   1267 H          22.8269    6.8338   11.7575 H     317  UNL317      0.1146
   1268 H          22.5888    5.5730   12.7589 H     317  UNL317      0.1146
   1269 N          21.4763    5.3752   14.4713 N.3   318  UNL318     -0.3437
   1270 H          21.0346    5.1255   15.3550 H     318  UNL318      0.1146
   1271 H          22.2019    6.0527   14.7015 H     318  UNL318      0.1146
   1272 H          21.9638    4.5383   14.1547 H     318  UNL318      0.1146
   1273 N          22.2896    4.9011   17.2975 N.3   319  UNL319     -0.3437
   1274 H          22.4258    5.8689   17.0090 H     319  UNL319      0.1146
   1275 H          21.5189    4.9126   17.9641 H     319  UNL319      0.1146
   1276 H          21.9424    4.4092   16.4754 H     319  UNL319      0.1146
   1277 N          21.7824    5.9667   19.7020 N.3   320  UNL320     -0.3437
   1278 H          21.7174    6.6371   20.4666 H     320  UNL320      0.1146
   1279 H          22.4585    6.3541   19.0453 H     320  UNL320      0.1146
   1280 H          22.2184    5.1338   20.0951 H     320  UNL320      0.1146
   1281 N          22.5106    6.0448   22.8291 N.3   321  UNL321     -0.3437
   1282 H          21.6280    5.6253   22.5406 H     321  UNL321      0.1146
   1283 H          22.9257    5.3954   23.4957 H     321  UNL321      0.1146
   1284 H          23.1124    6.0262   22.0070 H     321  UNL321      0.1146
   1285 N          21.6013    5.5307   30.8645 N.3   322  UNL322     -0.3437
   1286 H          21.1596    5.3182   29.9711 H     322  UNL322      0.1146
   1287 H          22.3269    4.8269   30.9935 H     322  UNL322      0.1146
   1288 H          22.0888    6.4159   30.7333 H     322  UNL322      0.1146
   1289 N          24.6330   -0.1089    1.8154 N.3   323  UNL323     -0.3437
   1290 H          24.1913   -0.3213    0.9220 H     323  UNL323      0.1146
   1291 H          25.3586   -0.8126    1.9444 H     323  UNL323      0.1146
   1292 H          25.1205    0.7763    1.6842 H     323  UNL323      0.1146
   1293 N          23.9126   -0.4499    6.5017 N.3   324  UNL324     -0.3437
   1294 H          24.2756   -1.3060    6.9186 H     324  UNL324      0.1146
   1295 H          23.2067   -0.7430    5.8278 H     324  UNL324      0.1146
   1296 H          23.4086    0.0324    7.2445 H     324  UNL324      0.1146
   1297 N          24.3830    0.5916    9.3064 N.3   325  UNL325     -0.3437
   1298 H          23.9413   -0.1783    9.8069 H     325  UNL325      0.1146
   1299 H          25.1086    0.9497    9.9258 H     325  UNL325      0.1146
   1300 H          24.8705    0.1704    8.5169 H     325  UNL325      0.1146
   1301 N          24.6330   -0.4843   12.3356 N.3   326  UNL326     -0.3437
   1302 H          24.1913   -1.1624   11.7164 H     326  UNL326      0.1146
   1303 H          25.3586   -0.9936   12.8380 H     326  UNL326      0.1146
   1304 H          25.1205    0.1738   11.7292 H     326  UNL326      0.1146
   1305 N          25.2580   -0.5759   15.5032 N.3   327  UNL327     -0.3437
   1306 H          24.8163   -0.4053   14.6009 H     327  UNL327      0.1146
   1307 H          25.9836   -1.2710   15.3338 H     327  UNL327      0.1146
   1308 H          25.7455    0.2857   15.7447 H     327  UNL327      0.1146
   1309 N          24.8830   -0.5591   19.8636 N.3   328  UNL328     -0.3437
   1310 H          24.4413   -0.1151   20.6675 H     328  UNL328      0.1146
   1311 H          25.6086    0.0845   19.5509 H     328  UNL328      0.1146
   1312 H          25.3705   -1.3768   20.2270 H     328  UNL328      0.1146
   1313 N          24.6330    0.6052   23.0619 N.3   329  UNL329     -0.3437
   1314 H          24.1913   -0.2609   23.3669 H     329  UNL329      0.1146
   1315 H          25.3586    0.8073   23.7482 H     329  UNL329      0.1146
   1316 H          25.1205    0.3819   22.1954 H     329  UNL329      0.1146
   1317 N          24.8830   -0.7698   25.3277 N.3   330  UNL330     -0.3437
   1318 H          24.4413   -1.6359   25.6327 H     330  UNL330      0.1146
   1319 H          25.6086   -0.5677   26.0141 H     330  UNL330      0.1146
   1320 H          25.3705   -0.9931   24.4612 H     330  UNL330      0.1146
   1321 N          24.2580   -0.3259   28.2073 N.3   331  UNL331     -0.3437
   1322 H          23.8163   -0.1553   27.3050 H     331  UNL331      0.1146
   1323 H          24.9836   -1.0210   28.0379 H     331  UNL331      0.1146
   1324 H          24.7455    0.5357   28.4488 H     331  UNL331      0.1146
   1325 N          25.2098   -0.5250   30.5042 N.3   332  UNL332     -0.3437
   1326 H          25.6023    0.2383   31.0533 H     332  UNL332      0.1146
   1327 H          25.2765   -1.3559   31.0903 H     332  UNL332      0.1146
   1328 H          24.2149   -0.3238   30.4145 H     332  UNL332      0.1146
   1329 N          24.3830    3.1756    0.2442 N.3   333  UNL333     -0.3437
   1330 H          23.9413    3.4662    1.1153 H     333  UNL333      0.1146
   1331 H          25.1086    3.8652    0.0535 H     333  UNL333      0.1146
   1332 H          24.8705    2.3055    0.4531 H     333  UNL333      0.1146
   1333 N          24.7522    0.9165    3.9597 N.3   334  UNL334     -0.3437
   1334 H          25.3709    1.4405    3.3424 H     334  UNL334      0.1146
   1335 H          25.3591    0.3510    4.5516 H     334  UNL334      0.1146
   1336 H          24.3213    1.6046    4.5755 H     334  UNL334      0.1146
   1337 N          25.5575    1.9732    6.8038 N.3   335  UNL335     -0.3437
   1338 H          24.5456    1.9192    6.9109 H     335  UNL335      0.1146
   1339 H          25.9438    1.2618    7.4227 H     335  UNL335      0.1146
   1340 H          25.7567    1.6584    5.8553 H     335  UNL335      0.1146
   1341 N          24.2876    3.5506    8.9684 N.3   336  UNL336     -0.3437
   1342 H          24.6506    3.8412    8.0617 H     336  UNL336      0.1146
   1343 H          23.5817    4.2402    9.2225 H     336  UNL336      0.1146
   1344 H          23.7836    2.6805    8.8034 H     336  UNL336      0.1146
   1345 N          24.5388    2.6744   11.4857 N.3   337  UNL337     -0.3437
   1346 H          23.5655    2.8266   11.2251 H     337  UNL337      0.1146
   1347 H          25.0822    3.3485   10.9485 H     337  UNL337      0.1146
   1348 H          24.6171    2.9630   12.4599 H     337  UNL337      0.1146
   1349 N          24.2937    1.7915   14.1912 N.3   338  UNL338     -0.3437
   1350 H          25.0469    2.3155   14.6346 H     338  UNL338      0.1146
   1351 H          23.8736    1.2260   14.9275 H     338  UNL338      0.1146
   1352 H          23.5893    2.4796   13.9291 H     338  UNL338      0.1146
   1353 N          24.8110    2.2109   16.9123 N.3   339  UNL339     -0.3437
   1354 H          25.5177    1.9984   17.6149 H     339  UNL339      0.1146
   1355 H          24.0827    1.5072   17.0247 H     339  UNL339      0.1146
   1356 H          24.3921    3.0961   17.1940 H     339  UNL339      0.1146
   1357 N          24.8400    2.5041   20.0748 N.3   340  UNL340     -0.3437
   1358 H          24.8506    2.6013   19.0605 H     340  UNL340      0.1146
   1359 H          24.1201    3.1423   20.4106 H     340  UNL340      0.1146
   1360 H          24.4927    1.5648   20.2633 H     340  UNL340      0.1146
   1361 N          24.7074    3.0398   22.6841 N.3   341  UNL341     -0.3437
   1362 H          25.3719    2.4607   23.1954 H     341  UNL341      0.1146
   1363 H          24.1593    2.3994   22.1114 H     341  UNL341      0.1146
   1364 H          24.0649    3.4127   23.3815 H     341  UNL341      0.1146
   1365 N          24.6445    2.8575   25.2413 N.3   342  UNL342     -0.3437
   1366 H          24.1230    2.0071   25.0331 H     342  UNL342      0.1146
   1367 H          24.0695    3.3864   25.8956 H     342  UNL342      0.1146
   1368 H          25.4665    2.5616   25.7657 H     342  UNL342      0.1146
   1369 N          24.5080    3.0943   28.8206 N.3   343  UNL343     -0.3437
   1370 H          24.0663    3.3732   27.9456 H     343  UNL343      0.1146
   1371 H          25.2336    2.4249   28.5680 H     343  UNL343      0.1146
   1372 H          24.9955    3.9202   29.1648 H     343  UNL343      0.1146
   1373 N          24.4186    2.2163   31.7395 N.3   344  UNL344     -0.3437
   1374 H          24.1991    1.7781   30.8461 H     344  UNL344      0.1146
   1375 H          25.4231    2.1034   31.8685 H     344  UNL344      0.1146
   1376 H          24.2628    3.2148   31.6083 H     344  UNL344      0.1146
   1377 N          24.6631    5.8569    1.5719 N.3   345  UNL345     -0.3437
   1378 H          25.0273    4.9429    1.8370 H     345  UNL345      0.1146
   1379 H          23.6497    5.7905    1.6553 H     345  UNL345      0.1146
   1380 H          24.9633    6.5014    2.3018 H     345  UNL345      0.1146
   1381 N          24.3745    3.8472    4.0677 N.3   346  UNL346     -0.3437
   1382 H          24.5207    4.8405    3.8934 H     346  UNL346      0.1146
   1383 H          24.1178    3.4393    3.1699 H     346  UNL346      0.1146
   1384 H          25.2905    3.4648    4.2983 H     346  UNL346      0.1146
   1385 N          25.3056    5.6098    6.4557 N.3   347  UNL347     -0.3437
   1386 H          24.3957    5.7002    6.9054 H     347  UNL347      0.1146
   1387 H          25.8284    6.4471    6.7088 H     347  UNL347      0.1146
   1388 H          25.7739    4.8346    6.9227 H     347  UNL347      0.1146
   1389 N          24.5777    5.4160   11.8044 N.3   348  UNL348     -0.3437
   1390 H          25.1821    4.7015   12.2074 H     348  UNL348      0.1146
   1391 H          23.7189    4.9382   11.5349 H     348  UNL348      0.1146
   1392 H          24.3249    6.0360   12.5725 H     348  UNL348      0.1146
   1393 N          24.6390    4.6093   15.0336 N.3   349  UNL349     -0.3437
   1394 H          23.6852    4.4715   14.7024 H     349  UNL349      0.1146
   1395 H          25.2445    4.4018   14.2407 H     349  UNL349      0.1146
   1396 H          24.7348    5.6091   15.2059 H     349  UNL349      0.1146
   1397 N          24.9453    6.1571   17.5556 N.3   350  UNL350     -0.3437
   1398 H          25.1447    6.7779   16.7725 H     350  UNL350      0.1146
   1399 H          24.4059    6.7088   18.2212 H     350  UNL350      0.1146
   1400 H          24.3076    5.4480   17.1966 H     350  UNL350      0.1146
   1401 N          24.7111    5.5189   19.8352 N.3   351  UNL351     -0.3437
   1402 H          24.3003    5.2829   20.7374 H     351  UNL351      0.1146
   1403 H          25.7153    5.5892   19.9936 H     351  UNL351      0.1146
   1404 H          24.5768    4.7007   19.2428 H     351  UNL351      0.1146
   1405 N          25.2580    6.0925   22.7041 N.3   352  UNL352     -0.3437
   1406 H          24.8163    5.2207   22.4156 H     352  UNL352      0.1146
   1407 H          25.9836    5.8326   23.3707 H     352  UNL352      0.1146
   1408 H          25.7455    6.4459   21.8820 H     352  UNL352      0.1146
   1409 N          24.8830    5.2807   25.4578 N.3   353  UNL353     -0.3437
   1410 H          24.4413    5.0682   24.5644 H     353  UNL353      0.1146
   1411 H          25.6086    4.5769   25.5868 H     353  UNL353      0.1146
   1412 H          25.3705    6.1659   25.3266 H     353  UNL353      0.1146
   1413 N          24.5080    6.2175   28.1108 N.3   354  UNL354     -0.3437
   1414 H          24.0663    5.3457   27.8223 H     354  UNL354      0.1146
   1415 H          25.2336    5.9576   28.7774 H     354  UNL354      0.1146
   1416 H          24.9955    6.5709   27.2887 H     354  UNL354      0.1146
   1417 N          24.5259    5.4919   31.0116 N.3   355  UNL355     -0.3437
   1418 H          24.0337    5.1184   30.2013 H     355  UNL355      0.1146
   1419 H          25.5116    5.5173   30.7543 H     355  UNL355      0.1146
   1420 H          24.2323    6.4641   31.0951 H     355  UNL355      0.1146
   1421 N          26.5933    3.3293    1.7239 N.3   356  UNL356     -0.3437
   1422 H          26.6215    3.9218    0.8953 H     356  UNL356      0.1146
   1423 H          26.8752    2.4002    1.4146 H     356  UNL356      0.1146
   1424 H          27.3403    3.6614    2.3322 H     356  UNL356      0.1146
@<TRIPOS>BOND
     1     1     2    1
     2     1     3    1
     3     1     4    1
     4     5     6    1
     5     5     7    1
     6     5     8    1
     7     9    10    1
     8     9    11    1
     9     9    12    1
    10    13    14    1
    11    13    15    1
    12    13    16    1
    13    17    18    1
    14    17    19    1
    15    17    20    1
    16    21    22    1
    17    21    23    1
    18    21    24    1
    19    25    26    1
    20    25    27    1
    21    25    28    1
    22    29    30    1
    23    29    31    1
    24    29    32    1
    25    33    34    1
    26    33    35    1
    27    33    36    1
    28    37    38    1
    29    37    39    1
    30    37    40    1
    31    41    42    1
    32    41    43    1
    33    41    44    1
    34    45    46    1
    35    45    47    1
    36    45    48    1
    37    49    50    1
    38    49    51    1
    39    49    52    1
    40    53    54    1
    41    53    55    1
    42    53    56    1
    43    57    58    1
    44    57    59    1
    45    57    60    1
    46    61    62    1
    47    61    63    1
    48    61    64    1
    49    65    66    1
    50    65    67    1
    51    65    68    1
    52    69    70    1
    53    69    71    1
    54    69    72    1
    55    73    74    1
    56    73    75    1
    57    73    76    1
    58    77    78    1
    59    77    79    1
    60    77    80    1
    61    81    82    1
    62    81    83    1
    63    81    84    1
    64    85    86    1
    65    85    87    1
    66    85    88    1
    67    89    90    1
    68    89    91    1
    69    89    92    1
    70    93    94    1
    71    93    95    1
    72    93    96    1
    73    97    98    1
    74    97    99    1
    75    97   100    1
    76   101   102    1
    77   101   103    1
    78   101   104    1
    79   105   106    1
    80   105   107    1
    81   105   108    1
    82   109   110    1
    83   109   111    1
    84   109   112    1
    85   113   114    1
    86   113   115    1
    87   113   116    1
    88   117   118    1
    89   117   119    1
    90   117   120    1
    91   121   122    1
    92   121   123    1
    93   121   124    1
    94   125   126    1
    95   125   127    1
    96   125   128    1
    97   129   130    1
    98   129   131    1
    99   129   132    1
   100   133   134    1
   101   133   135    1
   102   133   136    1
   103   137   138    1
   104   137   139    1
   105   137   140    1
   106   141   142    1
   107   141   143    1
   108   141   144    1
   109   145   146    1
   110   145   147    1
   111   145   148    1
   112   149   150    1
   113   149   151    1
   114   149   152    1
   115   153   154    1
   116   153   155    1
   117   153   156    1
   118   157   158    1
   119   157   159    1
   120   157   160    1
   121   161   162    1
   122   161   163    1
   123   161   164    1
   124   165   166    1
   125   165   167    1
   126   165   168    1
   127   169   170    1
   128   169   171    1
   129   169   172    1
   130   173   174    1
   131   173   175    1
   132   173   176    1
   133   177   178    1
   134   177   179    1
   135   177   180    1
   136   181   182    1
   137   181   183    1
   138   181   184    1
   139   185   186    1
   140   185   187    1
   141   185   188    1
   142   189   190    1
   143   189   191    1
   144   189   192    1
   145   193   194    1
   146   193   195    1
   147   193   196    1
   148   197   198    1
   149   197   199    1
   150   197   200    1
   151   201   202    1
   152   201   203    1
   153   201   204    1
   154   205   206    1
   155   205   207    1
   156   205   208    1
   157   209   210    1
   158   209   211    1
   159   209   212    1
   160   213   214    1
   161   213   215    1
   162   213   216    1
   163   217   218    1
   164   217   219    1
   165   217   220    1
   166   221   222    1
   167   221   223    1
   168   221   224    1
   169   225   226    1
   170   225   227    1
   171   225   228    1
   172   229   230    1
   173   229   231    1
   174   229   232    1
   175   233   234    1
   176   233   235    1
   177   233   236    1
   178   237   238    1
   179   237   239    1
   180   237   240    1
   181   241   242    1
   182   241   243    1
   183   241   244    1
   184   245   246    1
   185   245   247    1
   186   245   248    1
   187   249   250    1
   188   249   251    1
   189   249   252    1
   190   253   254    1
   191   253   255    1
   192   253   256    1
   193   257   258    1
   194   257   259    1
   195   257   260    1
   196   261   262    1
   197   261   263    1
   198   261   264    1
   199   265   266    1
   200   265   267    1
   201   265   268    1
   202   269   270    1
   203   269   271    1
   204   269   272    1
   205   273   274    1
   206   273   275    1
   207   273   276    1
   208   277   278    1
   209   277   279    1
   210   277   280    1
   211   281   282    1
   212   281   283    1
   213   281   284    1
   214   285   286    1
   215   285   287    1
   216   285   288    1
   217   289   290    1
   218   289   291    1
   219   289   292    1
   220   293   294    1
   221   293   295    1
   222   293   296    1
   223   297   298    1
   224   297   299    1
   225   297   300    1
   226   301   302    1
   227   301   303    1
   228   301   304    1
   229   305   306    1
   230   305   307    1
   231   305   308    1
   232   309   310    1
   233   309   311    1
   234   309   312    1
   235   313   314    1
   236   313   315    1
   237   313   316    1
   238   317   318    1
   239   317   319    1
   240   317   320    1
   241   321   322    1
   242   321   323    1
   243   321   324    1
   244   325   326    1
   245   325   327    1
   246   325   328    1
   247   329   330    1
   248   329   331    1
   249   329   332    1
   250   333   334    1
   251   333   335    1
   252   333   336    1
   253   337   338    1
   254   337   339    1
   255   337   340    1
   256   341   342    1
   257   341   343    1
   258   341   344    1
   259   345   346    1
   260   345   347    1
   261   345   348    1
   262   349   350    1
   263   349   351    1
   264   349   352    1
   265   353   354    1
   266   353   355    1
   267   353   356    1
   268   357   358    1
   269   357   359    1
   270   357   360    1
   271   361   362    1
   272   361   363    1
   273   361   364    1
   274   365   366    1
   275   365   367    1
   276   365   368    1
   277   369   370    1
   278   369   371    1
   279   369   372    1
   280   373   374    1
   281   373   375    1
   282   373   376    1
   283   377   378    1
   284   377   379    1
   285   377   380    1
   286   381   382    1
   287   381   383    1
   288   381   384    1
   289   385   386    1
   290   385   387    1
   291   385   388    1
   292   389   390    1
   293   389   391    1
   294   389   392    1
   295   393   394    1
   296   393   395    1
   297   393   396    1
   298   397   398    1
   299   397   399    1
   300   397   400    1
   301   401   402    1
   302   401   403    1
   303   401   404    1
   304   405   406    1
   305   405   407    1
   306   405   408    1
   307   409   410    1
   308   409   411    1
   309   409   412    1
   310   413   414    1
   311   413   415    1
   312   413   416    1
   313   417   418    1
   314   417   419    1
   315   417   420    1
   316   421   422    1
   317   421   423    1
   318   421   424    1
   319   425   426    1
   320   425   427    1
   321   425   428    1
   322   429   430    1
   323   429   431    1
   324   429   432    1
   325   433   434    1
   326   433   435    1
   327   433   436    1
   328   437   438    1
   329   437   439    1
   330   437   440    1
   331   441   442    1
   332   441   443    1
   333   441   444    1
   334   445   446    1
   335   445   447    1
   336   445   448    1
   337   449   450    1
   338   449   451    1
   339   449   452    1
   340   453   454    1
   341   453   455    1
   342   453   456    1
   343   457   458    1
   344   457   459    1
   345   457   460    1
   346   461   462    1
   347   461   463    1
   348   461   464    1
   349   465   466    1
   350   465   467    1
   351   465   468    1
   352   469   470    1
   353   469   471    1
   354   469   472    1
   355   473   474    1
   356   473   475    1
   357   473   476    1
   358   477   478    1
   359   477   479    1
   360   477   480    1
   361   481   482    1
   362   481   483    1
   363   481   484    1
   364   485   486    1
   365   485   487    1
   366   485   488    1
   367   489   490    1
   368   489   491    1
   369   489   492    1
   370   493   494    1
   371   493   495    1
   372   493   496    1
   373   497   498    1
   374   497   499    1
   375   497   500    1
   376   501   502    1
   377   501   503    1
   378   501   504    1
   379   505   506    1
   380   505   507    1
   381   505   508    1
   382   509   510    1
   383   509   511    1
   384   509   512    1
   385   513   514    1
   386   513   515    1
   387   513   516    1
   388   517   518    1
   389   517   519    1
   390   517   520    1
   391   521   522    1
   392   521   523    1
   393   521   524    1
   394   525   526    1
   395   525   527    1
   396   525   528    1
   397   529   530    1
   398   529   531    1
   399   529   532    1
   400   533   534    1
   401   533   535    1
   402   533   536    1
   403   537   538    1
   404   537   539    1
   405   537   540    1
   406   541   542    1
   407   541   543    1
   408   541   544    1
   409   545   546    1
   410   545   547    1
   411   545   548    1
   412   549   550    1
   413   549   551    1
   414   549   552    1
   415   553   554    1
   416   553   555    1
   417   553   556    1
   418   557   558    1
   419   557   559    1
   420   557   560    1
   421   561   562    1
   422   561   563    1
   423   561   564    1
   424   565   566    1
   425   565   567    1
   426   565   568    1
   427   569   570    1
   428   569   571    1
   429   569   572    1
   430   573   574    1
   431   573   575    1
   432   573   576    1
   433   577   578    1
   434   577   579    1
   435   577   580    1
   436   581   582    1
   437   581   583    1
   438   581   584    1
   439   585   586    1
   440   585   587    1
   441   585   588    1
   442   589   590    1
   443   589   591    1
   444   589   592    1
   445   593   594    1
   446   593   595    1
   447   593   596    1
   448   597   598    1
   449   597   599    1
   450   597   600    1
   451   601   602    1
   452   601   603    1
   453   601   604    1
   454   605   606    1
   455   605   607    1
   456   605   608    1
   457   609   610    1
   458   609   611    1
   459   609   612    1
   460   613   614    1
   461   613   615    1
   462   613   616    1
   463   617   618    1
   464   617   619    1
   465   617   620    1
   466   621   622    1
   467   621   623    1
   468   621   624    1
   469   625   626    1
   470   625   627    1
   471   625   628    1
   472   629   630    1
   473   629   631    1
   474   629   632    1
   475   633   634    1
   476   633   635    1
   477   633   636    1
   478   637   638    1
   479   637   639    1
   480   637   640    1
   481   641   642    1
   482   641   643    1
   483   641   644    1
   484   645   646    1
   485   645   647    1
   486   645   648    1
   487   649   650    1
   488   649   651    1
   489   649   652    1
   490   653   654    1
   491   653   655    1
   492   653   656    1
   493   657   658    1
   494   657   659    1
   495   657   660    1
   496   661   662    1
   497   661   663    1
   498   661   664    1
   499   665   666    1
   500   665   667    1
   501   665   668    1
   502   669   670    1
   503   669   671    1
   504   669   672    1
   505   673   674    1
   506   673   675    1
   507   673   676    1
   508   677   678    1
   509   677   679    1
   510   677   680    1
   511   681   682    1
   512   681   683    1
   513   681   684    1
   514   685   686    1
   515   685   687    1
   516   685   688    1
   517   689   690    1
   518   689   691    1
   519   689   692    1
   520   693   694    1
   521   693   695    1
   522   693   696    1
   523   697   698    1
   524   697   699    1
   525   697   700    1
   526   701   702    1
   527   701   703    1
   528   701   704    1
   529   705   706    1
   530   705   707    1
   531   705   708    1
   532   709   710    1
   533   709   711    1
   534   709   712    1
   535   713   714    1
   536   713   715    1
   537   713   716    1
   538   717   718    1
   539   717   719    1
   540   717   720    1
   541   721   722    1
   542   721   723    1
   543   721   724    1
   544   725   726    1
   545   725   727    1
   546   725   728    1
   547   729   730    1
   548   729   731    1
   549   729   732    1
   550   733   734    1
   551   733   735    1
   552   733   736    1
   553   737   738    1
   554   737   739    1
   555   737   740    1
   556   741   742    1
   557   741   743    1
   558   741   744    1
   559   745   746    1
   560   745   747    1
   561   745   748    1
   562   749   750    1
   563   749   751    1
   564   749   752    1
   565   753   754    1
   566   753   755    1
   567   753   756    1
   568   757   758    1
   569   757   759    1
   570   757   760    1
   571   761   762    1
   572   761   763    1
   573   761   764    1
   574   765   766    1
   575   765   767    1
   576   765   768    1
   577   769   770    1
   578   769   771    1
   579   769   772    1
   580   773   774    1
   581   773   775    1
   582   773   776    1
   583   777   778    1
   584   777   779    1
   585   777   780    1
   586   781   782    1
   587   781   783    1
   588   781   784    1
   589   785   786    1
   590   785   787    1
   591   785   788    1
   592   789   790    1
   593   789   791    1
   594   789   792    1
   595   793   794    1
   596   793   795    1
   597   793   796    1
   598   797   798    1
   599   797   799    1
   600   797   800    1
   601   801   802    1
   602   801   803    1
   603   801   804    1
   604   805   806    1
   605   805   807    1
   606   805   808    1
   607   809   810    1
   608   809   811    1
   609   809   812    1
   610   813   814    1
   611   813   815    1
   612   813   816    1
   613   817   818    1
   614   817   819    1
   615   817   820    1
   616   821   822    1
   617   821   823    1
   618   821   824    1
   619   825   826    1
   620   825   827    1
   621   825   828    1
   622   829   830    1
   623   829   831    1
   624   829   832    1
   625   833   834    1
   626   833   835    1
   627   833   836    1
   628   837   838    1
   629   837   839    1
   630   837   840    1
   631   841   842    1
   632   841   843    1
   633   841   844    1
   634   845   846    1
   635   845   847    1
   636   845   848    1
   637   849   850    1
   638   849   851    1
   639   849   852    1
   640   853   854    1
   641   853   855    1
   642   853   856    1
   643   857   858    1
   644   857   859    1
   645   857   860    1
   646   861   862    1
   647   861   863    1
   648   861   864    1
   649   865   866    1
   650   865   867    1
   651   865   868    1
   652   869   870    1
   653   869   871    1
   654   869   872    1
   655   873   874    1
   656   873   875    1
   657   873   876    1
   658   877   878    1
   659   877   879    1
   660   877   880    1
   661   881   882    1
   662   881   883    1
   663   881   884    1
   664   885   886    1
   665   885   887    1
   666   885   888    1
   667   889   890    1
   668   889   891    1
   669   889   892    1
   670   893   894    1
   671   893   895    1
   672   893   896    1
   673   897   898    1
   674   897   899    1
   675   897   900    1
   676   901   902    1
   677   901   903    1
   678   901   904    1
   679   905   906    1
   680   905   907    1
   681   905   908    1
   682   909   910    1
   683   909   911    1
   684   909   912    1
   685   913   914    1
   686   913   915    1
   687   913   916    1
   688   917   918    1
   689   917   919    1
   690   917   920    1
   691   921   922    1
   692   921   923    1
   693   921   924    1
   694   925   926    1
   695   925   927    1
   696   925   928    1
   697   929   930    1
   698   929   931    1
   699   929   932    1
   700   933   934    1
   701   933   935    1
   702   933   936    1
   703   937   938    1
   704   937   939    1
   705   937   940    1
   706   941   942    1
   707   941   943    1
   708   941   944    1
   709   945   946    1
   710   945   947    1
   711   945   948    1
   712   949   950    1
   713   949   951    1
   714   949   952    1
   715   953   954    1
   716   953   955    1
   717   953   956    1
   718   957   958    1
   719   957   959    1
   720   957   960    1
   721   961   962    1
   722   961   963    1
   723   961   964    1
   724   965   966    1
   725   965   967    1
   726   965   968    1
   727   969   970    1
   728   969   971    1
   729   969   972    1
   730   973   974    1
   731   973   975    1
   732   973   976    1
   733   977   978    1
   734   977   979    1
   735   977   980    1
   736   981   982    1
   737   981   983    1
   738   981   984    1
   739   985   986    1
   740   985   987    1
   741   985   988    1
   742   989   990    1
   743   989   991    1
   744   989   992    1
   745   993   994    1
   746   993   995    1
   747   993   996    1
   748   997   998    1
   749   997   999    1
   750   997  1000    1
   751  1001  1002    1
   752  1001  1003    1
   753  1001  1004    1
   754  1005  1006    1
   755  1005  1007    1
   756  1005  1008    1
   757  1009  1010    1
   758  1009  1011    1
   759  1009  1012    1
   760  1013  1014    1
   761  1013  1015    1
   762  1013  1016    1
   763  1017  1018    1
   764  1017  1019    1
   765  1017  1020    1
   766  1021  1022    1
   767  1021  1023    1
   768  1021  1024    1
   769  1025  1026    1
   770  1025  1027    1
   771  1025  1028    1
   772  1029  1030    1
   773  1029  1031    1
   774  1029  1032    1
   775  1033  1034    1
   776  1033  1035    1
   777  1033  1036    1
   778  1037  1038    1
   779  1037  1039    1
   780  1037  1040    1
   781  1041  1042    1
   782  1041  1043    1
   783  1041  1044    1
   784  1045  1046    1
   785  1045  1047    1
   786  1045  1048    1
   787  1049  1050    1
   788  1049  1051    1
   789  1049  1052    1
   790  1053  1054    1
   791  1053  1055    1
   792  1053  1056    1
   793  1057  1058    1
   794  1057  1059    1
   795  1057  1060    1
   796  1061  1062    1
   797  1061  1063    1
   798  1061  1064    1
   799  1065  1066    1
   800  1065  1067    1
   801  1065  1068    1
   802  1069  1070    1
   803  1069  1071    1
   804  1069  1072    1
   805  1073  1074    1
   806  1073  1075    1
   807  1073  1076    1
   808  1077  1078    1
   809  1077  1079    1
   810  1077  1080    1
   811  1081  1082    1
   812  1081  1083    1
   813  1081  1084    1
   814  1085  1086    1
   815  1085  1087    1
   816  1085  1088    1
   817  1089  1090    1
   818  1089  1091    1
   819  1089  1092    1
   820  1093  1094    1
   821  1093  1095    1
   822  1093  1096    1
   823  1097  1098    1
   824  1097  1099    1
   825  1097  1100    1
   826  1101  1102    1
   827  1101  1103    1
   828  1101  1104    1
   829  1105  1106    1
   830  1105  1107    1
   831  1105  1108    1
   832  1109  1110    1
   833  1109  1111    1
   834  1109  1112    1
   835  1113  1114    1
   836  1113  1115    1
   837  1113  1116    1
   838  1117  1118    1
   839  1117  1119    1
   840  1117  1120    1
   841  1121  1122    1
   842  1121  1123    1
   843  1121  1124    1
   844  1125  1126    1
   845  1125  1127    1
   846  1125  1128    1
   847  1129  1130    1
   848  1129  1131    1
   849  1129  1132    1
   850  1133  1134    1
   851  1133  1135    1
   852  1133  1136    1
   853  1137  1138    1
   854  1137  1139    1
   855  1137  1140    1
   856  1141  1142    1
   857  1141  1143    1
   858  1141  1144    1
   859  1145  1146    1
   860  1145  1147    1
   861  1145  1148    1
   862  1149  1150    1
   863  1149  1151    1
   864  1149  1152    1
   865  1153  1154    1
   866  1153  1155    1
   867  1153  1156    1
   868  1157  1158    1
   869  1157  1159    1
   870  1157  1160    1
   871  1161  1162    1
   872  1161  1163    1
   873  1161  1164    1
   874  1165  1166    1
   875  1165  1167    1
   876  1165  1168    1
   877  1169  1170    1
   878  1169  1171    1
   879  1169  1172    1
   880  1173  1174    1
   881  1173  1175    1
   882  1173  1176    1
   883  1177  1178    1
   884  1177  1179    1
   885  1177  1180    1
   886  1181  1182    1
   887  1181  1183    1
   888  1181  1184    1
   889  1185  1186    1
   890  1185  1187    1
   891  1185  1188    1
   892  1189  1190    1
   893  1189  1191    1
   894  1189  1192    1
   895  1193  1194    1
   896  1193  1195    1
   897  1193  1196    1
   898  1197  1198    1
   899  1197  1199    1
   900  1197  1200    1
   901  1201  1202    1
   902  1201  1203    1
   903  1201  1204    1
   904  1205  1206    1
   905  1205  1207    1
   906  1205  1208    1
   907  1209  1210    1
   908  1209  1211    1
   909  1209  1212    1
   910  1213  1214    1
   911  1213  1215    1
   912  1213  1216    1
   913  1217  1218    1
   914  1217  1219    1
   915  1217  1220    1
   916  1221  1222    1
   917  1221  1223    1
   918  1221  1224    1
   919  1225  1226    1
   920  1225  1227    1
   921  1225  1228    1
   922  1229  1230    1
   923  1229  1231    1
   924  1229  1232    1
   925  1233  1234    1
   926  1233  1235    1
   927  1233  1236    1
   928  1237  1238    1
   929  1237  1239    1
   930  1237  1240    1
   931  1241  1242    1
   932  1241  1243    1
   933  1241  1244    1
   934  1245  1246    1
   935  1245  1247    1
   936  1245  1248    1
   937  1249  1250    1
   938  1249  1251    1
   939  1249  1252    1
   940  1253  1254    1
   941  1253  1255    1
   942  1253  1256    1
   943  1257  1258    1
   944  1257  1259    1
   945  1257  1260    1
   946  1261  1262    1
   947  1261  1263    1
   948  1261  1264    1
   949  1265  1266    1
   950  1265  1267    1
   951  1265  1268    1
   952  1269  1270    1
   953  1269  1271    1
   954  1269  1272    1
   955  1273  1274    1
   956  1273  1275    1
   957  1273  1276    1
   958  1277  1278    1
   959  1277  1279    1
   960  1277  1280    1
   961  1281  1282    1
   962  1281  1283    1
   963  1281  1284    1
   964  1285  1286    1
   965  1285  1287    1
   966  1285  1288    1
   967  1289  1290    1
   968  1289  1291    1
   969  1289  1292    1
   970  1293  1294    1
   971  1293  1295    1
   972  1293  1296    1
   973  1297  1298    1
   974  1297  1299    1
   975  1297  1300    1
   976  1301  1302    1
   977  1301  1303    1
   978  1301  1304    1
   979  1305  1306    1
   980  1305  1307    1
   981  1305  1308    1
   982  1309  1310    1
   983  1309  1311    1
   984  1309  1312    1
   985  1313  1314    1
   986  1313  1315    1
   987  1313  1316    1
   988  1317  1318    1
   989  1317  1319    1
   990  1317  1320    1
   991  1321  1322    1
   992  1321  1323    1
   993  1321  1324    1
   994  1325  1326    1
   995  1325  1327    1
   996  1325  1328    1
   997  1329  1330    1
   998  1329  1331    1
   999  1329  1332    1
  1000  1333  1334    1
  1001  1333  1335    1
  1002  1333  1336    1
  1003  1337  1338    1
  1004  1337  1339    1
  1005  1337  1340    1
  1006  1341  1342    1
  1007  1341  1343    1
  1008  1341  1344    1
  1009  1345  1346    1
  1010  1345  1347    1
  1011  1345  1348    1
  1012  1349  1350    1
  1013  1349  1351    1
  1014  1349  1352    1
  1015  1353  1354    1
  1016  1353  1355    1
  1017  1353  1356    1
  1018  1357  1358    1
  1019  1357  1359    1
  1020  1357  1360    1
  1021  1361  1362    1
  1022  1361  1363    1
  1023  1361  1364    1
  1024  1365  1366    1
  1025  1365  1367    1
  1026  1365  1368    1
  1027  1369  1370    1
  1028  1369  1371    1
  1029  1369  1372    1
  1030  1373  1374    1
  1031  1373  1375    1
  1032  1373  1376    1
  1033  1377  1378    1
  1034  1377  1379    1
  1035  1377  1380    1
  1036  1381  1382    1
  1037  1381  1383    1
  1038  1381  1384    1
  1039  1385  1386    1
  1040  1385  1387    1
  1041  1385  1388    1
  1042  1389  1390    1
  1043  1389  1391    1
  1044  1389  1392    1
  1045  1393  1394    1
  1046  1393  1395    1
  1047  1393  1396    1
  1048  1397  1398    1
  1049  1397  1399    1
  1050  1397  1400    1
  1051  1401  1402    1
  1052  1401  1403    1
  1053  1401  1404    1
  1054  1405  1406    1
  1055  1405  1407    1
  1056  1405  1408    1
  1057  1409  1410    1
  1058  1409  1411    1
  1059  1409  1412    1
  1060  1413  1414    1
  1061  1413  1415    1
  1062  1413  1416    1
  1063  1417  1418    1
  1064  1417  1419    1
  1065  1417  1420    1
  1066  1421  1422    1
  1067  1421  1423    1
  1068  1421  1424    1
