@<TRIPOS>MOLECULE
*****
 2980 2235 0 0 0
SMALL
GASTEIGER

@<TRIPOS>ATOM
      1 N          -0.1224   -1.9136   15.6250 N.3     1  UNL1       -0.3437
      2 H           0.1111   -1.9237   16.6168 H       1  UNL1        0.1146
      3 H          -1.0549   -1.5078   15.5601 H       1  UNL1        0.1146
      4 H           0.5082   -1.2385   15.1949 H       1  UNL1        0.1146
      5 N          -0.1708    0.3309    1.1476 N.3     2  UNL2       -0.3437
      6 H          -0.0062   -0.1483    0.2635 H       2  UNL2        0.1146
      7 H           0.7440    0.6376    1.4755 H       2  UNL2        0.1146
      8 H          -0.6850    1.1795    0.9157 H       2  UNL2        0.1146
      9 N          -0.2588    0.5367    4.9930 N.3     3  UNL3       -0.3437
     10 H          -0.1310   -0.4343    5.2744 H       3  UNL3        0.1146
     11 H          -0.3539    1.0692    5.8567 H       3  UNL3        0.1146
     12 H           0.6258    0.8280    4.5795 H       3  UNL3        0.1146
     13 N           0.1364    0.6583    7.1310 N.3     4  UNL4       -0.3437
     14 H           0.4364    0.6219    8.1041 H       4  UNL4        0.1146
     15 H           0.0969   -0.3090    6.8128 H       4  UNL4        0.1146
     16 H          -0.8275    0.9884    7.1463 H       4  UNL4        0.1146
     17 N          -0.0056    0.3383    9.6376 N.3     5  UNL5       -0.3437
     18 H          -0.8785    0.8623    9.5930 H       5  UNL5        0.1146
     19 H           0.0260   -0.2272    8.7904 H       5  UNL5        0.1146
     20 H           0.7401    1.0264    9.5439 H       5  UNL5        0.1146
     21 N          -0.2041    0.7111   11.6249 N.3     6  UNL6       -0.3437
     22 H          -0.7223   -0.1175   11.3364 H       6  UNL6        0.1146
     23 H           0.4952    0.3870   12.2915 H       6  UNL6        0.1146
     24 H           0.3132    1.0192   10.8028 H       6  UNL6        0.1146
     25 N          -0.2143    0.4383   13.4042 N.3     7  UNL7       -0.3437
     26 H          -0.7009    0.6451   14.2753 H       7  UNL7        0.1146
     27 H           0.3761    1.2467   13.2135 H       7  UNL7        0.1146
     28 H           0.4211   -0.3304   13.6131 H       7  UNL7        0.1146
     29 N          -0.2588    0.5509   15.9186 N.3     8  UNL8       -0.3437
     30 H          -0.1310    1.2856   15.2242 H       8  UNL8        0.1146
     31 H          -0.3539   -0.3178   15.3944 H       8  UNL8        0.1146
     32 H           0.6258    0.4810   16.4196 H       8  UNL8        0.1146
     33 N          -0.2826    0.5168   19.0036 N.3     9  UNL9       -0.3437
     34 H           0.4428    0.0045   19.5032 H       9  UNL9        0.1146
     35 H           0.1135    1.4321   18.7943 H       9  UNL9        0.1146
     36 H          -0.3916    0.0463   18.1063 H       9  UNL9        0.1146
     37 N          -0.2104    2.6086    1.1323 N.3    10  UNL10      -0.3437
     38 H           0.0214    3.5395    1.4759 H      10  UNL10       0.1146
     39 H          -0.6081    2.7429    0.2037 H      10  UNL10       0.1146
     40 H           0.6791    2.1320    0.9904 H      10  UNL10       0.1146
     41 N          -0.2223    0.5941    3.2183 N.3    11  UNL11      -0.3437
     42 H          -0.6640    1.1181    2.4642 H      11  UNL11       0.1146
     43 H           0.5033    0.0286    2.7800 H      11  UNL11       0.1146
     44 H           0.2652    1.2822    3.7904 H      11  UNL11       0.1146
     45 N          -0.2223    2.5941    5.3310 N.3    12  UNL12      -0.3437
     46 H          -0.6640    3.1181    4.5769 H      12  UNL12       0.1146
     47 H           0.5033    2.0286    4.8927 H      12  UNL12       0.1146
     48 H           0.2652    3.2822    5.9031 H      12  UNL12       0.1146
     49 N          -0.1206    2.9574    7.4889 N.3    13  UNL13      -0.3437
     50 H           0.8332    3.0932    7.1572 H      13  UNL13       0.1146
     51 H          -0.7109    2.9671    6.6583 H      13  UNL13       0.1146
     52 H          -0.1596    2.0053    7.8500 H      13  UNL13       0.1146
     53 N          -0.2223    2.5645    9.2846 N.3    14  UNL14      -0.3437
     54 H          -0.6640    3.4275    9.5984 H      14  UNL14       0.1146
     55 H           0.5033    2.8438    8.6259 H      14  UNL14       0.1146
     56 H           0.2652    2.1873   10.0960 H      14  UNL14       0.1146
     57 N          -0.1695    2.5087   11.4066 N.3    15  UNL15      -0.3437
     58 H           0.6199    2.3220   12.0234 H      15  UNL15       0.1146
     59 H          -0.8038    3.1060   11.9351 H      15  UNL15       0.1146
     60 H           0.1954    3.0862   10.6505 H      15  UNL15       0.1146
     61 N           0.1061    2.8753   13.3988 N.3    16  UNL16      -0.3437
     62 H          -0.0886    3.5481   14.1390 H      16  UNL16       0.1146
     63 H           0.6205    2.1140   13.8393 H      16  UNL16       0.1146
     64 H          -0.7960    2.4856   13.1291 H      16  UNL16       0.1146
     65 N          -0.2223    2.9637   15.6558 N.3    17  UNL17      -0.3437
     66 H          -0.6640    2.1957   16.1593 H      17  UNL17       0.1146
     67 H           0.5033    3.3242   16.2737 H      17  UNL17       0.1146
     68 H           0.2652    2.5393   14.8680 H      17  UNL17       0.1146
     69 N          -0.0966    2.9659   18.6552 N.3    18  UNL18      -0.3437
     70 H          -0.9204    2.4891   19.0190 H      18  UNL18       0.1146
     71 H           0.3988    3.3303   19.4677 H      18  UNL18       0.1146
     72 H           0.5003    2.2377   18.2656 H      18  UNL18       0.1146
     73 N          -0.3127    5.0897    0.9176 N.3    19  UNL19      -0.3437
     74 H          -0.0819    4.8409    1.8784 H      19  UNL19       0.1146
     75 H           0.3342    5.8326    0.6567 H      19  UNL19       0.1146
     76 H          -0.0576    4.2831    0.3496 H      19  UNL19       0.1146
     77 N          -0.2391    3.1401    3.2273 N.3    20  UNL20      -0.3437
     78 H          -0.6220    2.5789    2.4679 H      20  UNL20       0.1146
     79 H           0.3554    2.5132    3.7677 H      20  UNL20       0.1146
     80 H           0.3877    3.8141    2.7901 H      20  UNL20       0.1146
     81 N           0.1981    5.1028    5.3163 N.3    21  UNL21      -0.3437
     82 H          -0.5673    4.8159    5.9248 H      21  UNL21       0.1146
     83 H           0.3947    4.3031    4.7161 H      21  UNL21       0.1146
     84 H          -0.1834    5.8245    4.7064 H      21  UNL21       0.1146
     85 N          -0.2907    5.0465    7.4223 N.3    22  UNL22      -0.3437
     86 H          -0.1389    5.7194    6.6723 H      22  UNL22       0.1146
     87 H          -0.1846    4.1256    6.9992 H      22  UNL22       0.1146
     88 H           0.4964    5.1548    8.0604 H      22  UNL22       0.1146
     89 N          -0.2191    4.9668    9.1789 N.3    23  UNL23      -0.3437
     90 H          -0.6851    5.2165   10.0500 H      23  UNL23       0.1146
     91 H           0.4416    5.7188    8.9882 H      23  UNL23       0.1146
     92 H           0.3447    4.1441    9.3878 H      23  UNL23       0.1146
     93 N           0.1736    5.1819   11.3831 N.3    24  UNL24      -0.3437
     94 H          -0.7596    5.5903   11.3564 H      24  UNL24       0.1146
     95 H           0.3772    5.0106   12.3667 H      24  UNL24       0.1146
     96 H           0.0908    4.2635   10.9494 H      24  UNL24       0.1146
     97 N          -0.3198    4.9610   13.6035 N.3    25  UNL25      -0.3437
     98 H          -0.0209    5.1098   14.5662 H      25  UNL25       0.1146
     99 H          -0.0211    5.7864   13.0859 H      25  UNL25       0.1146
    100 H           0.2438    4.1890   13.2505 H      25  UNL25       0.1146
    101 N          -0.2641    4.9676   15.9136 N.3    26  UNL26      -0.3437
    102 H          -0.3369    5.8220   15.3632 H      26  UNL26       0.1146
    103 H          -0.1240    4.2128   15.2434 H      26  UNL26       0.1146
    104 H           0.6071    5.0438   16.4367 H      26  UNL26       0.1146
    105 N          -0.1932    4.7883   18.7483 N.3    27  UNL27      -0.3437
    106 H           0.3573    4.5272   19.5650 H      27  UNL27       0.1146
    107 H          -0.7544    5.5900   19.0324 H      27  UNL27       0.1146
    108 H           0.4724    5.1407   18.0618 H      27  UNL27       0.1146
    109 N          -0.1284    7.4609    1.1509 N.3    28  UNL28      -0.3437
    110 H           0.8094    7.6819    0.8192 H      28  UNL28       0.1146
    111 H          -0.7172    7.4175    0.3203 H      28  UNL28       0.1146
    112 H          -0.0817    6.5092    1.5120 H      28  UNL28       0.1146
    113 N          -0.2223    5.4620    3.1742 N.3    29  UNL29      -0.3437
    114 H          -0.6640    4.5902    2.8857 H      29  UNL29       0.1146
    115 H           0.5033    5.2021    3.8408 H      29  UNL29       0.1146
    116 H           0.2652    5.8153    2.3521 H      29  UNL29       0.1146
    117 N          -0.0127    7.0158    5.3310 N.3    30  UNL30      -0.3437
    118 H          -0.6977    6.9956    4.5769 H      30  UNL30       0.1146
    119 H           0.8813    7.2327    4.8927 H      30  UNL30       0.1146
    120 H          -0.2487    7.8254    5.9031 H      30  UNL30       0.1146
    121 N           0.1002    7.4070    7.0686 N.3    31  UNL31      -0.3437
    122 H          -0.9132    7.4201    6.9629 H      31  UNL31       0.1146
    123 H           0.2927    7.8175    7.9812 H      31  UNL31       0.1146
    124 H           0.3623    6.4250    7.1415 H      31  UNL31       0.1146
    125 N           0.1739    7.4686    9.4380 N.3    32  UNL32      -0.3437
    126 H           0.3823    6.8049    8.6934 H      32  UNL32       0.1146
    127 H          -0.7245    7.8860    9.1990 H      32  UNL32       0.1146
    128 H           0.0104    6.9100   10.2745 H      32  UNL32       0.1146
    129 N           0.1366    7.4553   11.6206 N.3    33  UNL33      -0.3437
    130 H          -0.2361    7.7781   10.7288 H      33  UNL33       0.1146
    131 H          -0.6705    7.3029   12.2237 H      33  UNL33       0.1146
    132 H           0.5320    6.5332   11.4424 H      33  UNL33       0.1146
    133 N          -0.3216    7.3522   13.4051 N.3    34  UNL34      -0.3437
    134 H          -0.1679    6.4658   13.8837 H      34  UNL34       0.1146
    135 H          -0.6706    7.9968   14.1129 H      34  UNL34       0.1146
    136 H           0.6022    7.6946   13.1445 H      34  UNL34       0.1146
    137 N          -0.2080    7.1894   15.5169 N.3    35  UNL35      -0.3437
    138 H          -0.7112    7.3517   16.3880 H      35  UNL35       0.1146
    139 H           0.3074    8.0476   15.3262 H      35  UNL35       0.1146
    140 H           0.4939    6.4809   15.7258 H      35  UNL35       0.1146
    141 N          -0.2826    7.2569   19.0042 N.3    36  UNL36      -0.3437
    142 H           0.4428    6.6633   19.4040 H      36  UNL36       0.1146
    143 H           0.1135    8.1948   18.9622 H      36  UNL36       0.1146
    144 H          -0.3916    6.9545   18.0372 H      36  UNL36       0.1146
    145 N          -0.2223    9.4957    0.7283 N.3    37  UNL37      -0.3437
    146 H          -0.6640    9.7863    1.5994 H      37  UNL37       0.1146
    147 H           0.5033   10.1853    0.5376 H      37  UNL37       0.1146
    148 H           0.2652    8.6256    0.9372 H      37  UNL37       0.1146
    149 N          -0.2240    7.5131    2.8409 N.3    38  UNL38      -0.3437
    150 H          -0.6378    7.8422    3.7120 H      38  UNL38       0.1146
    151 H           0.5606    8.1347    2.6502 H      38  UNL38       0.1146
    152 H           0.1833    6.6027    3.0498 H      38  UNL38       0.1146
    153 N          -0.2223    9.5442    5.3989 N.3    39  UNL39      -0.3437
    154 H          -0.6640    9.2792    4.5197 H      39  UNL39       0.1146
    155 H           0.5033    8.8493    5.5694 H      39  UNL39       0.1146
    156 H           0.2652   10.4201    5.2155 H      39  UNL39       0.1146
    157 N          -0.2223    9.5057    7.0662 N.3    40  UNL40      -0.3437
    158 H          -0.6640    9.7963    7.9373 H      40  UNL40       0.1146
    159 H           0.5033   10.1953    6.8755 H      40  UNL40       0.1146
    160 H           0.2652    8.6356    7.2751 H      40  UNL40       0.1146
    161 N          -0.2283    9.7344    9.3442 N.3    41  UNL41      -0.3437
    162 H          -0.6258    8.9462    9.8531 H      41  UNL41       0.1146
    163 H           0.5512   10.0690    9.9088 H      41  UNL41       0.1146
    164 H           0.1849    9.3432    8.4988 H      41  UNL41       0.1146
    165 N          -0.2223    9.7311   11.4305 N.3    42  UNL42      -0.3437
    166 H          -0.6640    8.9632   11.9340 H      42  UNL42       0.1146
    167 H           0.5033   10.0917   12.0484 H      42  UNL42       0.1146
    168 H           0.2652    9.3068   10.6426 H      42  UNL42       0.1146
    169 N          -0.2223    9.4957   13.4042 N.3    43  UNL43      -0.3437
    170 H          -0.6640    9.7863   14.2753 H      43  UNL43       0.1146
    171 H           0.5033   10.1853   13.2135 H      43  UNL43       0.1146
    172 H           0.2652    8.6256   13.6131 H      43  UNL43       0.1146
    173 N          -0.3061    9.5127   18.7483 N.3    44  UNL44      -0.3437
    174 H          -0.1684    8.9191   19.5650 H      44  UNL44       0.1146
    175 H          -0.0270   10.4506   19.0324 H      44  UNL44       0.1146
    176 H           0.3836    9.2103   18.0618 H      44  UNL44       0.1146
    177 N          -0.2223   12.9869    0.8672 N.3    45  UNL45      -0.3437
    178 H          -0.6640   12.2190    1.3707 H      45  UNL45       0.1146
    179 H           0.5033   13.3475    1.4851 H      45  UNL45       0.1146
    180 H           0.2652   12.5626    0.0793 H      45  UNL45       0.1146
    181 N          -0.2223   11.7515    2.8409 N.3    46  UNL46      -0.3437
    182 H          -0.6640   12.0421    3.7120 H      46  UNL46       0.1146
    183 H           0.5033   12.4411    2.6502 H      46  UNL46       0.1146
    184 H           0.2652   10.8814    3.0498 H      46  UNL46       0.1146
    185 N          -0.0922   12.7515    5.4635 N.3    47  UNL47      -0.3437
    186 H           0.8700   13.0421    5.2960 H      47  UNL47       0.1146
    187 H          -0.6792   13.4411    4.9963 H      47  UNL47       0.1146
    188 H          -0.2166   11.8814    4.9479 H      47  UNL47       0.1146
    189 N          -0.2223   12.9736    7.3996 N.3    48  UNL48      -0.3437
    190 H          -0.6640   12.1018    7.1111 H      48  UNL48       0.1146
    191 H           0.5033   12.7137    8.0662 H      48  UNL48       0.1146
    192 H           0.2652   13.3270    6.5775 H      48  UNL48       0.1146
    193 N          -0.1850   11.6617    9.1789 N.3    49  UNL49      -0.3437
    194 H          -0.7121   11.7026   10.0500 H      49  UNL49       0.1146
    195 H           0.1169   12.6161    8.9882 H      49  UNL49       0.1146
    196 H           0.6623   11.1356    9.3878 H      49  UNL49       0.1146
    197 N          -0.1916   12.4367   11.5625 N.3    50  UNL50      -0.3437
    198 H           0.3098   12.7485   12.3930 H      50  UNL50       0.1146
    199 H          -0.7521   13.2313   11.2579 H      50  UNL50       0.1146
    200 H           0.5160   12.2997   10.8422 H      50  UNL50       0.1146
    201 N          -0.2223   12.7515   13.4042 N.3    51  UNL51      -0.3437
    202 H          -0.6640   13.0421   14.2753 H      51  UNL51       0.1146
    203 H           0.5033   13.4411   13.2135 H      51  UNL51       0.1146
    204 H           0.2652   11.8814   13.6131 H      51  UNL51       0.1146
    205 N          -0.2223   11.7515   15.5169 N.3    52  UNL52      -0.3437
    206 H          -0.6640   12.0421   16.3880 H      52  UNL52       0.1146
    207 H           0.5033   12.4411   15.3262 H      52  UNL52       0.1146
    208 H           0.2652   10.8814   15.7258 H      52  UNL52       0.1146
    209 N          -0.2223   11.7515   17.6295 N.3    53  UNL53      -0.3437
    210 H          -0.6640   12.0421   18.5006 H      53  UNL53       0.1146
    211 H           0.5033   12.4411   17.4388 H      53  UNL53       0.1146
    212 H           0.2652   10.8814   17.8384 H      53  UNL53       0.1146
    213 N           1.9203    0.6838    0.7546 N.3    54  UNL54      -0.3437
    214 H           2.8855    0.3803    0.6333 H      54  UNL54       0.1146
    215 H           1.3568   -0.1652    0.7550 H      54  UNL54       0.1146
    216 H           1.8610    1.0607    1.6994 H      54  UNL54       0.1146
    217 N           1.7890    0.6945    2.9812 N.3    55  UNL55      -0.3437
    218 H           1.7405   -0.1773    2.4558 H      55  UNL55       0.1146
    219 H           1.7179    0.4346    3.9639 H      55  UNL55       0.1146
    220 H           2.7361    1.0479    2.8520 H      55  UNL55       0.1146
    221 N           2.1465    0.6597    5.3658 N.3    56  UNL56      -0.3437
    222 H           2.7023   -0.0305    4.8628 H      56  UNL56       0.1146
    223 H           1.6958    1.2311    4.6525 H      56  UNL56       0.1146
    224 H           1.3989    0.1394    5.8226 H      56  UNL56       0.1146
    225 N           1.8030    0.4724    7.0662 N.3    57  UNL57      -0.3437
    226 H           1.3613    0.7630    7.9373 H      57  UNL57       0.1146
    227 H           2.5286    1.1620    6.8755 H      57  UNL57       0.1146
    228 H           2.2905   -0.3977    7.2751 H      57  UNL57       0.1146
    229 N           2.2495    0.5167    9.5521 N.3    58  UNL58      -0.3437
    230 H           2.3260   -0.0600    8.7154 H      58  UNL58       0.1146
    231 H           1.9177    1.4270    9.2364 H      58  UNL58       0.1146
    232 H           1.4903    0.1160   10.1010 H      58  UNL58       0.1146
    233 N           1.7629    0.5300   11.6933 N.3    59  UNL59      -0.3437
    234 H           1.8241    1.2732   10.9989 H      59  UNL59       0.1146
    235 H           1.7463   -0.3436   11.1690 H      59  UNL59       0.1146
    236 H           2.6502    0.5400   12.1943 H      59  UNL59       0.1146
    237 N           1.8030    0.3383   13.7817 N.3    60  UNL60      -0.3437
    238 H           1.3613    0.8623   13.0275 H      60  UNL60       0.1146
    239 H           2.5286   -0.2272   13.3433 H      60  UNL60       0.1146
    240 H           2.2905    1.0264   14.3537 H      60  UNL60       0.1146
    241 N           2.1256    0.6981   15.5825 N.3    61  UNL61      -0.3437
    242 H           1.1121    0.7475   15.4882 H      61  UNL61       0.1146
    243 H           2.3181    0.7608   16.5812 H      61  UNL61       0.1146
    244 H           2.3877   -0.2467   15.3048 H      61  UNL61       0.1146
    245 N           1.7192    0.4894   18.7483 N.3    62  UNL62      -0.3437
    246 H           1.8569   -0.1041   19.5650 H      62  UNL62       0.1146
    247 H           1.9983    1.4274   19.0324 H      62  UNL62       0.1146
    248 H           2.4090    0.1871   18.0618 H      62  UNL62       0.1146
    249 N           1.9332    2.7282    1.2381 N.3    63  UNL63      -0.3437
    250 H           2.8954    3.0188    1.0707 H      63  UNL63       0.1146
    251 H           1.3462    3.4178    0.7710 H      63  UNL63       0.1146
    252 H           1.8088    1.8581    0.7226 H      63  UNL63       0.1146
    253 N           2.0908    2.6684    2.8079 N.3    64  UNL64      -0.3437
    254 H           2.4339    2.0692    3.5573 H      64  UNL64       0.1146
    255 H           1.0739    2.6257    2.8574 H      64  UNL64       0.1146
    256 H           2.3449    3.6197    3.0703 H      64  UNL64       0.1146
    257 N           2.0772    2.9436    5.3891 N.3    65  UNL65      -0.3437
    258 H           2.3384    3.2665    4.4586 H      65  UNL65       0.1146
    259 H           1.0700    2.7913    5.3611 H      65  UNL65       0.1146
    260 H           2.4979    2.0216    5.4948 H      65  UNL65       0.1146
    261 N           2.0698    2.5039    7.4187 N.3    66  UNL66      -0.3437
    262 H           1.4680    2.3487    6.6112 H      66  UNL66       0.1146
    263 H           2.8577    3.0544    7.0800 H      66  UNL66       0.1146
    264 H           1.5480    3.1159    8.0444 H      66  UNL66       0.1146
    265 N           2.0772    2.9436    9.6144 N.3    67  UNL67      -0.3437
    266 H           2.3384    3.2665    8.6839 H      67  UNL67       0.1146
    267 H           1.0700    2.7913    9.5865 H      67  UNL67       0.1146
    268 H           2.4979    2.0216    9.7201 H      67  UNL67       0.1146
    269 N           1.8030    2.7083   11.2949 N.3    68  UNL68      -0.3437
    270 H           1.3613    3.0761   12.1364 H      68  UNL68       0.1146
    271 H           2.5286    3.3780   11.0430 H      68  UNL68       0.1146
    272 H           2.2905    1.8605   11.5812 H      68  UNL68       0.1146
    273 N           1.7841    2.7083   13.4258 N.3    69  UNL69      -0.3437
    274 H           1.4198    3.0761   14.3036 H      69  UNL69       0.1146
    275 H           2.4841    3.3780   13.1097 H      69  UNL69       0.1146
    276 H           2.2954    1.8605   13.6671 H      69  UNL69       0.1146
    277 N           1.8030    2.9503   15.8502 N.3    70  UNL70      -0.3437
    278 H           1.3613    2.0785   15.5617 H      70  UNL70       0.1146
    279 H           2.5286    2.6904   16.5168 H      70  UNL70       0.1146
    280 H           2.2905    3.3037   15.0281 H      70  UNL70       0.1146
    281 N           1.8157    2.9659   18.7483 N.3    71  UNL71      -0.3437
    282 H           1.4363    2.4891   19.5650 H      71  UNL71       0.1146
    283 H           2.7239    3.3303   19.0324 H      71  UNL71       0.1146
    284 H           2.0076    2.2377   18.0618 H      71  UNL71       0.1146
    285 N           1.8065    5.0564    1.1731 N.3    72  UNL72      -0.3437
    286 H           1.3719    4.6020    0.3712 H      72  UNL72       0.1146
    287 H           2.5935    4.4657    1.4381 H      72  UNL72       0.1146
    288 H           2.2116    5.9221    0.8199 H      72  UNL72       0.1146
    289 N           1.7939    5.1095    3.2555 N.3    73  UNL73      -0.3437
    290 H           2.3532    5.8610    2.8546 H      73  UNL73       0.1146
    291 H           1.3798    4.6157    2.4661 H      73  UNL73       0.1146
    292 H           2.4566    4.4600    3.6767 H      73  UNL73       0.1146
    293 N           1.8130    4.9840    4.9536 N.3    74  UNL74      -0.3437
    294 H           1.3713    5.2746    5.8247 H      74  UNL74       0.1146
    295 H           2.5386    5.6736    4.7629 H      74  UNL74       0.1146
    296 H           2.3005    4.1139    5.1625 H      74  UNL74       0.1146
    297 N           1.7995    4.9430    7.0785 N.3    75  UNL75      -0.3437
    298 H           1.3927    5.4930    7.8337 H      75  UNL75       0.1146
    299 H           2.5824    5.4899    6.7229 H      75  UNL75       0.1146
    300 H           2.2089    4.1204    7.5191 H      75  UNL75       0.1146
    301 N           1.8030    4.7896    9.3810 N.3    76  UNL76      -0.3437
    302 H           1.3613    5.7060    9.3227 H      76  UNL76       0.1146
    303 H           2.5286    4.7815    8.6656 H      76  UNL76       0.1146
    304 H           2.2905    4.7692   10.2756 H      76  UNL76       0.1146
    305 N           1.9332    5.2197   11.7142 N.3    77  UNL77      -0.3437
    306 H           2.8954    5.2692   11.3825 H      77  UNL77       0.1146
    307 H           1.3462    5.2824   10.8836 H      77  UNL77       0.1146
    308 H           1.8088    4.2750   12.0753 H      77  UNL77       0.1146
    309 N           1.8063    4.9668   13.4042 N.3    78  UNL78      -0.3437
    310 H           1.3402    5.2165   14.2753 H      78  UNL78       0.1146
    311 H           2.4670    5.7188   13.2135 H      78  UNL78       0.1146
    312 H           2.3700    4.1441   13.6131 H      78  UNL78       0.1146
    313 N           1.7018    4.9853   15.7545 N.3    79  UNL79      -0.3437
    314 H           2.1096    5.3545   16.6123 H      79  UNL79       0.1146
    315 H           2.0035    5.6104   15.0084 H      79  UNL79       0.1146
    316 H           2.1685    4.0961   15.5817 H      79  UNL79       0.1146
    317 N           1.8321    4.7883   18.7483 N.3    80  UNL80      -0.3437
    318 H           2.3827    4.5272   19.5650 H      80  UNL80       0.1146
    319 H           1.2709    5.5900   19.0324 H      80  UNL80       0.1146
    320 H           2.4977    5.1407   18.0618 H      80  UNL80       0.1146
    321 N           1.9996    7.4669    1.1683 N.3    81  UNL81      -0.3437
    322 H           1.3782    6.6890    1.3853 H      81  UNL81       0.1146
    323 H           2.9058    7.0517    0.9563 H      81  UNL81       0.1146
    324 H           1.6599    7.8619    0.2925 H      81  UNL81       0.1146
    325 N           2.0096    7.4553    2.8355 N.3    82  UNL82      -0.3437
    326 H           1.3882    7.7781    3.5757 H      82  UNL82       0.1146
    327 H           2.9158    7.3029    3.2760 H      82  UNL82       0.1146
    328 H           1.6699    6.5332    2.5658 H      82  UNL82       0.1146
    329 N           2.0519    7.5544    5.1328 N.3    83  UNL83      -0.3437
    330 H           1.3333    7.3946    5.8374 H      83  UNL83       0.1146
    331 H           2.8715    7.0353    5.4447 H      83  UNL83       0.1146
    332 H           1.7268    7.0852    4.2887 H      83  UNL83       0.1146
    333 N           1.7801    7.4553    7.2143 N.3    84  UNL84      -0.3437
    334 H           2.3267    7.7781    8.0114 H      84  UNL84       0.1146
    335 H           2.4474    7.3029    6.4593 H      84  UNL84       0.1146
    336 H           1.4293    6.5332    7.4693 H      84  UNL84       0.1146
    337 N           1.8463    7.3820    9.1735 N.3    85  UNL85      -0.3437
    338 H           1.2354    7.0396    9.9137 H      85  UNL85       0.1146
    339 H           2.4709    8.0559    9.6140 H      85  UNL85       0.1146
    340 H           2.4308    6.5921    8.9038 H      85  UNL85       0.1146
    341 N           1.8030    7.0761   11.3972 N.3    86  UNL86      -0.3437
    342 H           1.3613    7.9391   11.7111 H      86  UNL86       0.1146
    343 H           2.5286    7.3554   10.7385 H      86  UNL86       0.1146
    344 H           2.2905    6.6989   12.2087 H      86  UNL86       0.1146
    345 N           2.0402    7.0487   13.4327 N.3    87  UNL87      -0.3437
    346 H           1.0957    7.0507   13.8152 H      87  UNL87       0.1146
    347 H           2.1799    7.9719   13.0244 H      87  UNL87       0.1146
    348 H           2.6677    6.9982   14.2340 H      87  UNL87       0.1146
    349 N           1.7799    7.1057   15.8764 N.3    88  UNL88      -0.3437
    350 H           1.4077    7.6297   15.0856 H      88  UNL88       0.1146
    351 H           2.5419    6.5403   15.5050 H      88  UNL88       0.1146
    352 H           2.2140    7.7938   16.4899 H      88  UNL88       0.1146
    353 N           1.7427    7.2569   19.0042 N.3    89  UNL89      -0.3437
    354 H           2.4681    6.6633   19.4040 H      89  UNL89       0.1146
    355 H           2.1388    8.1948   18.9622 H      89  UNL89       0.1146
    356 H           1.6338    6.9545   18.0372 H      89  UNL89       0.1146
    357 N           1.9332    9.7485    1.1314 N.3    90  UNL90      -0.3437
    358 H           2.8954    9.7680    0.7965 H      90  UNL90       0.1146
    359 H           1.3462    9.7363    0.2985 H      90  UNL90       0.1146
    360 H           1.8088    8.8400    1.5759 H      90  UNL90       0.1146
    361 N           1.8030    9.7178    3.1742 N.3    91  UNL91      -0.3437
    362 H           1.3613    8.8460    2.8857 H      91  UNL91       0.1146
    363 H           2.5286    9.4579    3.8408 H      91  UNL91       0.1146
    364 H           2.2905   10.0711    2.3521 H      91  UNL91       0.1146
    365 N           1.7825    9.7178    5.1128 N.3    92  UNL92      -0.3437
    366 H           1.6869    8.8460    4.5939 H      92  UNL92       0.1146
    367 H           1.8000    9.4579    6.0979 H      92  UNL92       0.1146
    368 H           2.7141   10.0711    4.8990 H      92  UNL92       0.1146
    369 N           1.7938    9.7178    7.3818 N.3    93  UNL93      -0.3437
    370 H           1.3798    8.8460    7.0547 H      93  UNL93       0.1146
    371 H           2.4566    9.4579    8.1109 H      93  UNL93       0.1146
    372 H           2.3532   10.0711    6.6068 H      93  UNL93       0.1146
    373 N           1.7973    9.7178    9.2909 N.3    94  UNL94      -0.3437
    374 H           1.7961    8.8460    8.7633 H      94  UNL94       0.1146
    375 H           1.6381    9.4579   10.2633 H      94  UNL94       0.1146
    376 H           2.7520   10.0711    9.2474 H      94  UNL94       0.1146
    377 N           1.7666    9.4028   11.3714 N.3    95  UNL95      -0.3437
    378 H           1.8943    9.0196   12.3069 H      95  UNL95       0.1146
    379 H           1.6715   10.4103   11.4911 H      95  UNL95       0.1146
    380 H           2.6512    9.2600   10.8861 H      95  UNL95       0.1146
    381 N           2.0402    9.3045   13.4327 N.3    96  UNL96      -0.3437
    382 H           1.0957    9.3065   13.8152 H      96  UNL96       0.1146
    383 H           2.1799   10.2277   13.0244 H      96  UNL96       0.1146
    384 H           2.6677    9.2541   14.2340 H      96  UNL96       0.1146
    385 N          -0.1970    9.7178   15.8502 N.3    97  UNL97      -0.3437
    386 H          -0.6387    8.8460   15.5617 H      97  UNL97       0.1146
    387 H           0.5286    9.4579   16.5168 H      97  UNL97       0.1146
    388 H           0.2905   10.0711   15.0281 H      97  UNL97       0.1146
    389 N           1.7192    9.5127   18.7483 N.3    98  UNL98      -0.3437
    390 H           1.8569    8.9191   19.5650 H      98  UNL98       0.1146
    391 H           1.9983   10.4506   19.0324 H      98  UNL98       0.1146
    392 H           2.4090    9.2103   18.0618 H      98  UNL98       0.1146
    393 N           1.9332   12.7515   -0.8745 N.3    99  UNL99      -0.3437
    394 H           2.8954   13.0421   -1.0420 H      99  UNL99       0.1146
    395 H           1.3462   13.4411   -1.3417 H      99  UNL99       0.1146
    396 H           1.8088   11.8814   -1.3901 H      99  UNL99       0.1146
    397 N           1.8030   12.9736    1.0616 N.3   100  UNL100     -0.3437
    398 H           1.3613   12.1018    0.7731 H     100  UNL100      0.1146
    399 H           2.5286   12.7137    1.7282 H     100  UNL100      0.1146
    400 H           2.2905   13.3270    0.2395 H     100  UNL100      0.1146
    401 N           1.8030   11.7515    2.8409 N.3   101  UNL101     -0.3437
    402 H           1.3613   12.0421    3.7120 H     101  UNL101      0.1146
    403 H           2.5286   12.4411    2.6502 H     101  UNL101      0.1146
    404 H           2.2905   10.8814    3.0498 H     101  UNL101      0.1146
    405 N           1.8030   11.7515    4.9536 N.3   102  UNL102     -0.3437
    406 H           1.3613   12.0421    5.8247 H     102  UNL102      0.1146
    407 H           2.5286   12.4411    4.7629 H     102  UNL102      0.1146
    408 H           2.2905   10.8814    5.1625 H     102  UNL102      0.1146
    409 N           1.8030   12.9736    7.3996 N.3   103  UNL103     -0.3437
    410 H           1.3613   12.1018    7.1111 H     103  UNL103      0.1146
    411 H           2.5286   12.7137    8.0662 H     103  UNL103      0.1146
    412 H           2.2905   13.3270    6.5775 H     103  UNL103      0.1146
    413 N           1.8976   11.6007    9.6155 N.3   104  UNL104     -0.3437
    414 H           1.3954   12.4866    9.5786 H     104  UNL104      0.1146
    415 H           1.8084   11.1885    8.6879 H     104  UNL104      0.1146
    416 H           2.8822   11.8403    9.7229 H     104  UNL104      0.1146
    417 N           1.7760   12.9683   11.5904 N.3   105  UNL105     -0.3437
    418 H           2.6294   13.0474   12.1415 H     105  UNL105      0.1146
    419 H           2.0547   13.1054   10.6199 H     105  UNL105      0.1146
    420 H           1.4835   11.9950   11.6637 H     105  UNL105      0.1146
    421 N           1.8030   12.7515   13.4042 N.3   106  UNL106     -0.3437
    422 H           1.3613   13.0421   14.2753 H     106  UNL106      0.1146
    423 H           2.5286   13.4411   13.2135 H     106  UNL106      0.1146
    424 H           2.2905   11.8814   13.6131 H     106  UNL106      0.1146
    425 N           1.8030   11.7316   15.5203 N.3   107  UNL107     -0.3437
    426 H           1.3613   12.0993   16.3617 H     107  UNL107      0.1146
    427 H           2.5286   12.4013   15.2683 H     107  UNL107      0.1146
    428 H           2.2905   10.8838   15.8065 H     107  UNL107      0.1146
    429 N           1.8030   11.7515   17.6295 N.3   108  UNL108     -0.3437
    430 H           1.3613   12.0421   18.5006 H     108  UNL108      0.1146
    431 H           2.5286   12.4411   17.4388 H     108  UNL108      0.1146
    432 H           2.2905   10.8814   17.8384 H     108  UNL108      0.1146
    433 N           4.0540    0.5733   -1.4465 N.3   109  UNL109     -0.3437
    434 H           3.1441    0.1594   -1.2485 H     109  UNL109      0.1146
    435 H           4.1411    1.3728   -0.8207 H     109  UNL109      0.1146
    436 H           4.7458   -0.1058   -1.1325 H     109  UNL109      0.1146
    437 N           4.2560    0.4383    0.7819 N.3   110  UNL110     -0.3437
    438 H           3.7073    1.2188    0.4239 H     110  UNL110      0.1146
    439 H           4.5113    0.6887    1.7361 H     110  UNL110      0.1146
    440 H           3.6104   -0.3461    0.8606 H     110  UNL110      0.1146
    441 N           3.7844    0.6171    2.9307 N.3   111  UNL111     -0.3437
    442 H           3.5637    0.1961    3.8321 H     111  UNL111      0.1146
    443 H           4.5145    1.3043    3.1130 H     111  UNL111      0.1146
    444 H           4.2224   -0.1178    2.3772 H     111  UNL111      0.1146
    445 N           3.8826    0.6275    4.9481 N.3   112  UNL112     -0.3437
    446 H           3.2434    0.3414    5.6883 H     112  UNL112      0.1146
    447 H           4.5652    1.2426    5.3887 H     112  UNL112      0.1146
    448 H           4.3937   -0.2118    4.6785 H     112  UNL112      0.1146
    449 N           3.8284    0.3087    7.1719 N.3   113  UNL113     -0.3437
    450 H           3.3867    1.1717    7.4858 H     113  UNL113      0.1146
    451 H           4.5540    0.5879    6.5132 H     113  UNL113      0.1146
    452 H           4.3159   -0.0686    7.9834 H     113  UNL113      0.1146
    453 N           3.8252    0.3383    9.5384 N.3   114  UNL114     -0.3437
    454 H           3.4531    0.8623    8.7476 H     114  UNL114      0.1146
    455 H           4.5873   -0.2272    9.1670 H     114  UNL114      0.1146
    456 H           4.2593    1.0264   10.1519 H     114  UNL114      0.1146
    457 N           4.0283    0.2322   13.4923 N.3   115  UNL115     -0.3437
    458 H           4.2618    0.2221   14.4842 H     115  UNL115      0.1146
    459 H           3.0959    0.6381   13.4274 H     115  UNL115      0.1146
    460 H           4.6589    0.9073   13.0622 H     115  UNL115      0.1146
    461 N           4.1644    0.5212   15.6250 N.3   116  UNL116     -0.3437
    462 H           4.2648    0.7323   16.6168 H     116  UNL116      0.1146
    463 H           3.4269   -0.1790   15.5601 H     116  UNL116      0.1146
    464 H           3.7888    1.3652   15.1949 H     116  UNL116      0.1146
    465 N           3.7446    0.4894   18.7483 N.3   117  UNL117     -0.3437
    466 H           3.8823   -0.1041   19.5650 H     117  UNL117      0.1146
    467 H           4.0237    1.4274   19.0324 H     117  UNL117      0.1146
    468 H           4.4343    0.1871   18.0618 H     117  UNL117      0.1146
    469 N           4.0656    2.9813   -1.2353 N.3   118  UNL118     -0.3437
    470 H           3.1211    2.6031   -1.2928 H     118  UNL118      0.1146
    471 H           4.2052    3.2411   -0.2599 H     118  UNL118      0.1146
    472 H           4.6930    2.1975   -1.4097 H     118  UNL118      0.1146
    473 N           3.7666    2.9038    3.0879 N.3   119  UNL119     -0.3437
    474 H           4.3868    3.0513    3.8828 H     119  UNL119      0.1146
    475 H           4.2999    3.1718    2.2620 H     119  UNL119      0.1146
    476 H           3.6317    1.8960    3.0202 H     119  UNL119      0.1146
    477 N           3.8033    2.7025    5.3684 N.3   120  UNL120     -0.3437
    478 H           4.6637    3.0070    5.8216 H     120  UNL120      0.1146
    479 H           3.5666    3.4313    4.6966 H     120  UNL120      0.1146
    480 H           4.0514    1.8822    4.8170 H     120  UNL120      0.1146
    481 N           3.8523    2.7129    7.0498 N.3   121  UNL121     -0.3437
    482 H           3.3101    2.9557    7.8777 H     121  UNL121      0.1146
    483 H           4.5271    3.4662    6.9251 H     121  UNL121      0.1146
    484 H           4.3954    1.8882    7.3017 H     121  UNL121      0.1146
    485 N           3.8284    2.8391    9.1933 N.3   122  UNL122     -0.3437
    486 H           3.3867    2.6725   10.0963 H     122  UNL122      0.1146
    487 H           4.5540    3.5350    9.3596 H     122  UNL122      0.1146
    488 H           4.3159    1.9764    8.9556 H     122  UNL122      0.1146
    489 N           3.9123    0.9493   11.7042 N.3   123  UNL123     -0.3437
    490 H           4.8501    1.1702   11.3725 H     123  UNL123      0.1146
    491 H           3.3235    0.9059   10.8736 H     123  UNL123      0.1146
    492 H           3.9590   -0.0024   12.0653 H     123  UNL123      0.1146
    493 N           3.9599    2.7282   13.3387 N.3   124  UNL124     -0.3437
    494 H           3.1522    3.0188   13.8878 H     124  UNL124      0.1146
    495 H           4.6873    3.4178   13.5225 H     124  UNL124      0.1146
    496 H           4.2857    1.8581   13.7572 H     124  UNL124      0.1146
    497 N           3.7312    2.6958   15.8294 N.3   125  UNL125     -0.3437
    498 H           3.8456    2.7632   14.8191 H     125  UNL125      0.1146
    499 H           4.3662    1.9599   16.1356 H     125  UNL125      0.1146
    500 H           4.1020    3.5641   16.2127 H     125  UNL125      0.1146
    501 N           3.8410    2.9659   18.7483 N.3   126  UNL126     -0.3437
    502 H           3.4617    2.4891   19.5650 H     126  UNL126      0.1146
    503 H           4.7493    3.3303   19.0324 H     126  UNL126      0.1146
    504 H           4.0329    2.2377   18.0618 H     126  UNL126      0.1146
    505 N           3.8832    4.8251    1.1338 N.3   127  UNL127     -0.3437
    506 H           4.6532    5.3197    1.5818 H     127  UNL127      0.1146
    507 H           3.2641    5.5452    0.7639 H     127  UNL127      0.1146
    508 H           4.2844    4.3562    0.3229 H     127  UNL127      0.1146
    509 N           4.0593    4.7426    3.1798 N.3   128  UNL128     -0.3437
    510 H           3.4357    4.7381    2.3739 H     128  UNL128      0.1146
    511 H           4.9315    5.1597    2.8578 H     128  UNL128      0.1146
    512 H           3.6584    5.4058    3.8415 H     128  UNL128      0.1146
    513 N           3.8284    4.9840    4.9536 N.3   129  UNL129     -0.3437
    514 H           3.3867    5.2746    5.8247 H     129  UNL129      0.1146
    515 H           4.5540    5.6736    4.7629 H     129  UNL129      0.1146
    516 H           4.3159    4.1139    5.1625 H     129  UNL129      0.1146
    517 N           4.0656    4.7929    7.0947 N.3   130  UNL130     -0.3437
    518 H           3.1211    4.7949    7.4772 H     130  UNL130      0.1146
    519 H           4.2052    5.7161    6.6864 H     130  UNL130      0.1146
    520 H           4.6930    4.7424    7.8960 H     130  UNL130      0.1146
    521 N           3.8493    5.1995    9.2305 N.3   131  UNL131     -0.3437
    522 H           3.9948    5.5223   10.1860 H     131  UNL131      0.1146
    523 H           4.7785    5.0471    8.8409 H     131  UNL131      0.1146
    524 H           3.4224    4.2774    9.3075 H     131  UNL131      0.1146
    525 N           3.8284    2.9840   11.2916 N.3   132  UNL132     -0.3437
    526 H           3.3867    3.2746   12.1627 H     132  UNL132      0.1146
    527 H           4.5540    3.6736   11.1009 H     132  UNL132      0.1146
    528 H           4.3159    2.1139   11.5005 H     132  UNL132      0.1146
    529 N           3.7916    5.0326   13.8115 N.3   133  UNL133     -0.3437
    530 H           3.5144    4.7676   12.8674 H     133  UNL133      0.1146
    531 H           4.4749    4.3377   14.1091 H     133  UNL133      0.1146
    532 H           4.3040    5.9084   13.7183 H     133  UNL133      0.1146
    533 N           3.8070    5.1832   15.8666 N.3   134  UNL134     -0.3437
    534 H           4.4858    4.8176   16.5329 H     134  UNL134      0.1146
    535 H           4.3475    5.6746   15.1560 H     134  UNL134      0.1146
    536 H           3.4046    4.3708   15.4013 H     134  UNL134      0.1146
    537 N           3.7446    5.0011   18.7483 N.3   135  UNL135     -0.3437
    538 H           3.8823    4.4075   19.5650 H     135  UNL135      0.1146
    539 H           4.0237    5.9390   19.0324 H     135  UNL135      0.1146
    540 H           4.4343    4.6987   18.0618 H     135  UNL135      0.1146
    541 N           4.2690    7.3910    0.8470 N.3   136  UNL136     -0.3437
    542 H           3.8989    7.8750    1.6637 H     136  UNL136      0.1146
    543 H           4.4012    6.4213    1.1311 H     136  UNL136      0.1146
    544 H           3.5159    7.3822    0.1605 H     136  UNL136      0.1146
    545 N           4.0280    7.0029    3.1951 N.3   137  UNL137     -0.3437
    546 H           3.3430    7.0505    2.4422 H     137  UNL137      0.1146
    547 H           4.9220    7.2583    2.7780 H     137  UNL137      0.1146
    548 H           3.7920    7.7578    3.8376 H     137  UNL137      0.1146
    549 N           3.9053    7.4513    5.3762 N.3   138  UNL138     -0.3437
    550 H           4.8195    7.7556    5.0445 H     138  UNL138      0.1146
    551 H           3.3228    7.3551    4.5456 H     138  UNL138      0.1146
    552 H           4.0374    6.5076    5.7373 H     138  UNL138      0.1146
    553 N           3.8384    7.0761    7.1719 N.3   139  UNL139     -0.3437
    554 H           3.3967    7.9391    7.4858 H     139  UNL139      0.1146
    555 H           4.5640    7.3554    6.5132 H     139  UNL139      0.1146
    556 H           4.3259    6.6989    7.9834 H     139  UNL139      0.1146
    557 N           3.8284    7.1674    9.6017 N.3   140  UNL140     -0.3437
    558 H           3.3867    7.4070    8.7152 H     140  UNL140      0.1146
    559 H           4.5540    6.4874    9.3792 H     140  UNL140      0.1146
    560 H           4.3159    8.0078    9.9089 H     140  UNL140      0.1146
    561 N           3.8217    7.4388   11.3791 N.3   141  UNL141     -0.3437
    562 H           3.4270    6.9108   12.1561 H     141  UNL141      0.1146
    563 H           4.5999    7.9701   11.7671 H     141  UNL141      0.1146
    564 H           4.2364    6.7498   10.7532 H     141  UNL141      0.1146
    565 N           3.8116    7.4620   13.7012 N.3   142  UNL142     -0.3437
    566 H           3.4287    6.5902   13.3383 H     142  UNL142      0.1146
    567 H           4.4062    7.2021   14.4870 H     142  UNL142      0.1146
    568 H           4.4384    7.8153   12.9797 H     142  UNL142      0.1146
    569 N           3.8144    7.4620   15.6571 N.3   143  UNL143     -0.3437
    570 H           3.7658    6.5902   15.1318 H     143  UNL143      0.1146
    571 H           3.7433    7.2021   16.6399 H     143  UNL143      0.1146
    572 H           4.7614    7.8153   15.5280 H     143  UNL143      0.1146
    573 N           3.8410    7.4775   18.7483 N.3   144  UNL144     -0.3437
    574 H           3.4617    7.0007   19.5650 H     144  UNL144      0.1146
    575 H           4.7493    7.8420   19.0324 H     144  UNL144      0.1146
    576 H           4.0329    6.7493   18.0618 H     144  UNL144      0.1146
    577 N           4.2530    9.4459    1.1170 N.3   145  UNL145     -0.3437
    578 H           3.4426    8.8467    1.2672 H     145  UNL145      0.1146
    579 H           4.4527    9.4031    0.1186 H     145  UNL145      0.1146
    580 H           3.9367   10.3972    1.2996 H     145  UNL145      0.1146
    581 N           3.9730    9.2688    2.9207 N.3   146  UNL146     -0.3437
    582 H           4.3526    9.1306    3.8563 H     146  UNL146      0.1146
    583 H           3.1247    9.8205    3.0405 H     146  UNL146      0.1146
    584 H           4.6347    9.8729    2.4355 H     146  UNL146      0.1146
    585 N           3.8284    9.3917    4.9946 N.3   147  UNL147     -0.3437
    586 H           3.3867   10.0671    5.6167 H     147  UNL147      0.1146
    587 H           4.5540    9.9032    4.4943 H     147  UNL147      0.1146
    588 H           4.3159    8.7309    5.5980 H     147  UNL147      0.1146
    589 N           3.7919    9.5711    7.4688 N.3   148  UNL148     -0.3437
    590 H           3.9197   10.3174    6.7868 H     148  UNL148      0.1146
    591 H           3.6968    8.7114    6.9300 H     148  UNL148      0.1146
    592 H           4.6765    9.4929    7.9686 H     148  UNL148      0.1146
    593 N           3.7919    9.7059    9.3638 N.3   149  UNL149     -0.3437
    594 H           3.9197    9.0680    8.5795 H     149  UNL149      0.1146
    595 H           3.6968    9.1185   10.1910 H     149  UNL149      0.1146
    596 H           4.6765   10.2003    9.4706 H     149  UNL149      0.1146
    597 N           3.8284    9.6066   11.2960 N.3   150  UNL150     -0.3437
    598 H           3.3867    9.4399   12.1990 H     150  UNL150      0.1146
    599 H           4.5540   10.3024   11.4623 H     150  UNL150      0.1146
    600 H           4.3159    8.7439   11.0583 H     150  UNL150      0.1146
    601 N           3.8192    9.7178   13.7198 N.3   151  UNL151     -0.3437
    602 H           3.4052    8.8460   13.3927 H     151  UNL151      0.1146
    603 H           4.4819    9.4579   14.4489 H     151  UNL151      0.1146
    604 H           4.3786   10.0711   12.9448 H     151  UNL151      0.1146
    605 N           1.7730    9.6818   15.7630 N.3   152  UNL152     -0.3437
    606 H           2.1891    9.4632   16.6671 H     152  UNL152      0.1146
    607 H           2.4969   10.1605   15.2290 H     152  UNL152      0.1146
    608 H           1.6260    8.7872   15.2978 H     152  UNL152      0.1146
    609 N           3.7446    9.5127   18.7483 N.3   153  UNL153     -0.3437
    610 H           3.8823    8.9191   19.5650 H     153  UNL153      0.1146
    611 H           4.0237   10.4506   19.0324 H     153  UNL153      0.1146
    612 H           4.4343    9.2103   18.0618 H     153  UNL153      0.1146
    613 N           3.8284   12.9869    0.8672 N.3   154  UNL154     -0.3437
    614 H           3.3867   12.2190    1.3707 H     154  UNL154      0.1146
    615 H           4.5540   13.3475    1.4851 H     154  UNL154      0.1146
    616 H           4.3159   12.5626    0.0793 H     154  UNL154      0.1146
    617 N           3.8284   11.7121    2.8494 N.3   155  UNL155     -0.3437
    618 H           3.3867   12.1540    3.6544 H     155  UNL155      0.1146
    619 H           4.5540   12.3565    2.5384 H     155  UNL155      0.1146
    620 H           4.3159   10.8935    3.2107 H     155  UNL155      0.1146
    621 N           3.9585   12.7515    5.4635 N.3   156  UNL156     -0.3437
    622 H           4.9208   13.0421    5.2960 H     156  UNL156      0.1146
    623 H           3.3715   13.4411    4.9963 H     156  UNL156      0.1146
    624 H           3.8341   11.8814    4.9479 H     156  UNL156      0.1146
    625 N           3.9229   11.6108    7.0662 N.3   157  UNL157     -0.3437
    626 H           3.4207   11.4455    7.9373 H     157  UNL157      0.1146
    627 H           3.8338   12.6079    6.8755 H     157  UNL157      0.1146
    628 H           4.9075   11.4519    7.2751 H     157  UNL157      0.1146
    629 N           4.1509   12.9872    9.2346 N.3   158  UNL158     -0.3437
    630 H           3.1375   13.0366    9.1403 H     158  UNL158      0.1146
    631 H           4.3435   13.0499   10.2333 H     158  UNL158      0.1146
    632 H           4.4131   12.0424    8.9568 H     158  UNL158      0.1146
    633 N           3.8137   12.7699   11.7022 N.3   159  UNL159     -0.3437
    634 H           4.4685   13.5148   11.4682 H     159  UNL159      0.1146
    635 H           3.4699   12.4087   10.8136 H     159  UNL159      0.1146
    636 H           4.3729   12.0228   12.1115 H     159  UNL159      0.1146
    637 N           3.8284   12.7515   13.4042 N.3   160  UNL160     -0.3437
    638 H           3.3867   13.0421   14.2753 H     160  UNL160      0.1146
    639 H           4.5540   13.4411   13.2135 H     160  UNL160      0.1146
    640 H           4.3159   11.8814   13.6131 H     160  UNL160      0.1146
    641 N           3.8284   11.7316   15.5203 N.3   161  UNL161     -0.3437
    642 H           3.3867   12.0993   16.3617 H     161  UNL161      0.1146
    643 H           4.5540   12.4013   15.2683 H     161  UNL161      0.1146
    644 H           4.3159   10.8838   15.8065 H     161  UNL161      0.1146
    645 N           3.8284   11.7515   17.6295 N.3   162  UNL162     -0.3437
    646 H           3.3867   12.0421   18.5006 H     162  UNL162      0.1146
    647 H           4.5540   12.4411   17.4388 H     162  UNL162      0.1146
    648 H           4.3159   10.8814   17.8384 H     162  UNL162      0.1146
    649 N           5.8537    0.3383    1.1057 N.3   163  UNL163     -0.3437
    650 H           5.4120    0.8623    0.3516 H     163  UNL163      0.1146
    651 H           6.5793   -0.2272    0.6673 H     163  UNL163      0.1146
    652 H           6.3412    1.0264    1.6778 H     163  UNL163      0.1146
    653 N           5.9965    0.6931    2.8452 N.3   164  UNL164     -0.3437
    654 H           5.2895    0.7339    3.5779 H     164  UNL164      0.1146
    655 H           6.8910    0.8453    3.3092 H     164  UNL164      0.1146
    656 H           6.0093   -0.2727    2.5207 H     164  UNL164      0.1146
    657 N           6.2806    0.6706    7.3474 N.3   165  UNL165     -0.3437
    658 H           6.4167    0.0856    6.5243 H     165  UNL165      0.1146
    659 H           5.4337    1.2095    7.1721 H     165  UNL165      0.1146
    660 H           6.0554    0.0339    8.1105 H     165  UNL165      0.1146
    661 N           5.8233    0.3626   11.6656 N.3   166  UNL166     -0.3437
    662 H           6.1120    1.2393   12.0974 H     166  UNL166      0.1146
    663 H           5.5423    0.5971   10.7145 H     166  UNL166      0.1146
    664 H           6.6689   -0.1992   11.5781 H     166  UNL166      0.1146
    665 N           5.8537    0.4724   13.4042 N.3   167  UNL167     -0.3437
    666 H           5.4120    0.7630   14.2753 H     167  UNL167      0.1146
    667 H           6.5793    1.1620   13.2135 H     167  UNL167      0.1146
    668 H           6.3412   -0.3977   13.6131 H     167  UNL167      0.1146
    669 N           6.2831    0.6193   15.8703 N.3   168  UNL168     -0.3437
    670 H           5.4224    0.7751   16.3930 H     168  UNL168      0.1146
    671 H           6.3633   -0.3901   15.7557 H     168  UNL168      0.1146
    672 H           6.1176    0.9955   14.9379 H     168  UNL168      0.1146
    673 N           5.9402    2.9436    1.1525 N.3   169  UNL169     -0.3437
    674 H           6.8115    3.2665    0.7341 H     169  UNL169      0.1146
    675 H           5.2961    2.7913    0.3776 H     169  UNL169      0.1146
    676 H           6.1386    2.0216    1.5382 H     169  UNL169      0.1146
    677 N           6.0603    2.6941    2.7745 N.3   170  UNL170     -0.3437
    678 H           5.4389    3.4746    2.9817 H     170  UNL170      0.1146
    679 H           6.9665    2.9445    3.1677 H     170  UNL170      0.1146
    680 H           5.7207    1.9097    3.3291 H     170  UNL170      0.1146
    681 N           5.8537    0.6282    4.9536 N.3   171  UNL171     -0.3437
    682 H           5.4120    0.9188    5.8247 H     171  UNL171      0.1146
    683 H           6.5793    1.3178    4.7629 H     171  UNL171      0.1146
    684 H           6.3412   -0.2419    5.1625 H     171  UNL171      0.1146
    685 N           5.8537    2.8391    7.0706 N.3   172  UNL172     -0.3437
    686 H           5.4120    2.6725    7.9737 H     172  UNL172      0.1146
    687 H           6.5793    3.5350    7.2370 H     172  UNL172      0.1146
    688 H           6.3412    1.9764    6.8330 H     172  UNL172      0.1146
    689 N           5.8637    2.9503    9.5122 N.3   173  UNL173     -0.3437
    690 H           5.4220    2.0785    9.2237 H     173  UNL173      0.1146
    691 H           6.5893    2.6904   10.1788 H     173  UNL173      0.1146
    692 H           6.3512    3.3037    8.6901 H     173  UNL173      0.1146
    693 N           5.8537    2.7898   11.7353 N.3   174  UNL174     -0.3437
    694 H           5.4120    2.4738   10.8731 H     174  UNL174      0.1146
    695 H           6.5793    2.1060   11.9461 H     174  UNL174      0.1146
    696 H           6.3412    3.6534   11.5011 H     174  UNL174      0.1146
    697 N           5.8537    2.9503   13.7375 N.3   175  UNL175     -0.3437
    698 H           5.4120    2.0785   13.4490 H     175  UNL175      0.1146
    699 H           6.5793    2.6904   14.4041 H     175  UNL175      0.1146
    700 H           6.3412    3.3037   12.9154 H     175  UNL175      0.1146
    701 N           5.8537    2.7885   15.5176 N.3   176  UNL176     -0.3437
    702 H           5.4120    2.8362   16.4346 H     176  UNL176      0.1146
    703 H           6.5793    3.5040   15.5177 H     176  UNL176      0.1146
    704 H           6.3412    1.8942   15.4868 H     176  UNL176      0.1146
    705 N           6.2650    0.7382   18.6546 N.3   177  UNL177     -0.3437
    706 H           5.3853    1.0288   18.2304 H     177  UNL177      0.1146
    707 H           6.4702    1.4278   19.3763 H     177  UNL177      0.1146
    708 H           6.0659   -0.1319   19.1462 H     177  UNL177      0.1146
    709 N           5.8685    4.8499    1.1224 N.3   178  UNL178     -0.3437
    710 H           5.3608    5.3739    0.4110 H     178  UNL178      0.1146
    711 H           6.5517    4.2844    0.6206 H     178  UNL178      0.1146
    712 H           6.4054    5.5380    1.6483 H     178  UNL178      0.1146
    713 N           6.1907    5.1513    3.2802 N.3   179  UNL179     -0.3437
    714 H           6.7841    4.4994    2.7690 H     179  UNL179      0.1146
    715 H           5.8108    5.7908    2.5837 H     179  UNL179      0.1146
    716 H           5.4007    4.6048    3.6201 H     179  UNL179      0.1146
    717 N           5.8537    2.8499    5.3310 N.3   180  UNL180     -0.3437
    718 H           5.4120    3.3739    4.5769 H     180  UNL180      0.1146
    719 H           6.5793    2.2844    4.8927 H     180  UNL180      0.1146
    720 H           6.3412    3.5380    5.9031 H     180  UNL180      0.1146
    721 N           6.0303    4.7465    7.4187 N.3   181  UNL181     -0.3437
    722 H           5.4089    4.7574    6.6112 H     181  UNL181      0.1146
    723 H           6.9365    5.0669    7.0800 H     181  UNL181      0.1146
    724 H           5.6907    5.4755    8.0444 H     181  UNL181      0.1146
    725 N           5.8637    4.8106    9.3022 N.3   182  UNL182     -0.3437
    726 H           5.4220    5.6983    9.5373 H     182  UNL182      0.1146
    727 H           6.5893    5.0295    8.6211 H     182  UNL182      0.1146
    728 H           6.3512    4.5078   10.1443 H     182  UNL182      0.1146
    729 N           6.2159    5.0014   11.2718 N.3   183  UNL183     -0.3437
    730 H           6.5601    4.4000   12.0190 H     183  UNL183      0.1146
    731 H           5.2564    4.7077   11.0944 H     183  UNL183      0.1146
    732 H           6.1540    5.9371   11.6704 H     183  UNL183      0.1146
    733 N           5.7914    4.9499   13.7797 N.3   184  UNL184     -0.3437
    734 H           6.3157    5.7305   14.1725 H     184  UNL184      0.1146
    735 H           5.5984    5.2003   12.8110 H     184  UNL184      0.1146
    736 H           6.4408    4.1655   13.7430 H     184  UNL184      0.1146
    737 N           5.9402    5.1995   15.9411 N.3   185  UNL185     -0.3437
    738 H           6.8115    5.5223   15.5228 H     185  UNL185      0.1146
    739 H           5.2961    5.0471   15.1662 H     185  UNL185      0.1146
    740 H           6.1386    4.2774   16.3268 H     185  UNL185      0.1146
    741 N           5.8537    3.2195   17.7684 N.3   186  UNL186     -0.3437
    742 H           5.4120    2.4516   18.2720 H     186  UNL186      0.1146
    743 H           6.5793    3.5801   18.3864 H     186  UNL186      0.1146
    744 H           6.3412    2.7951   16.9806 H     186  UNL186      0.1146
    745 N           5.8684    7.4426    1.1085 N.3   187  UNL187     -0.3437
    746 H           6.6452    7.9488    0.6858 H     187  UNL187      0.1146
    747 H           5.3853    6.9777    0.3410 H     187  UNL187      0.1146
    748 H           6.2875    6.7005    1.6670 H     187  UNL187      0.1146
    749 N           6.0957    7.4773    3.2655 N.3   188  UNL188     -0.3437
    750 H           5.3276    6.8576    3.5193 H     188  UNL188      0.1146
    751 H           6.9048    6.8758    3.1173 H     188  UNL188      0.1146
    752 H           5.8583    7.8589    2.3509 H     188  UNL188      0.1146
    753 N           5.8446    5.4620    5.2691 N.3   189  UNL189     -0.3437
    754 H           5.4306    4.5902    4.9421 H     189  UNL189      0.1146
    755 H           6.5073    5.2021    5.9982 H     189  UNL189      0.1146
    756 H           6.4040    5.8153    4.4942 H     189  UNL189      0.1146
    757 N           5.9830    7.2455    7.0007 N.3   190  UNL190     -0.3437
    758 H           5.2047    7.6075    7.5498 H     190  UNL190      0.1146
    759 H           6.7694    7.8669    7.1845 H     190  UNL190      0.1146
    760 H           6.2293    6.3496    7.4192 H     190  UNL190      0.1146
    761 N           6.1703    7.4258    9.6141 N.3   191  UNL191     -0.3437
    762 H           5.1593    7.3894    9.7362 H     191  UNL191      0.1146
    763 H           6.4903    6.4585    9.6318 H     191  UNL191      0.1146
    764 H           6.3265    7.7559    8.6628 H     191  UNL191      0.1146
    765 N           5.8098    7.3722   11.3714 N.3   192  UNL192     -0.3437
    766 H           5.5890    7.0339   12.3069 H     192  UNL192      0.1146
    767 H           6.5399    8.0729   11.4911 H     192  UNL192      0.1146
    768 H           6.2477    6.5905   10.8861 H     192  UNL192      0.1146
    769 N           5.7836    7.3135   13.8026 N.3   193  UNL193     -0.3437
    770 H           5.8448    7.9913   13.0441 H     193  UNL193      0.1146
    771 H           5.7670    6.3963   13.3589 H     193  UNL193      0.1146
    772 H           6.6709    7.3685   14.3006 H     193  UNL193      0.1146
    773 N           6.2757    7.4258   15.7923 N.3   194  UNL194     -0.3437
    774 H           5.6671    7.3894   16.6087 H     194  UNL194      0.1146
    775 H           6.5092    6.4585   15.5726 H     194  UNL194      0.1146
    776 H           5.6944    7.7559   15.0232 H     194  UNL194      0.1146
    777 N           5.8446    5.4620   17.9451 N.3   195  UNL195     -0.3437
    778 H           5.4306    4.5902   17.6180 H     195  UNL195      0.1146
    779 H           6.5073    5.2021   18.6742 H     195  UNL195      0.1146
    780 H           6.4040    5.8153   17.1701 H     195  UNL195      0.1146
    781 N           6.2230    9.4948    1.1793 N.3   196  UNL196     -0.3437
    782 H           6.6929    9.7279    0.3056 H     196  UNL196      0.1146
    783 H           5.5062   10.2069    1.3113 H     196  UNL196      0.1146
    784 H           5.7243    8.6232    1.0061 H     196  UNL196      0.1146
    785 N           5.8537    9.4957    2.8409 N.3   197  UNL197     -0.3437
    786 H           5.4120    9.7863    3.7120 H     197  UNL197      0.1146
    787 H           6.5793   10.1853    2.6502 H     197  UNL197      0.1146
    788 H           6.3412    8.6256    3.0498 H     197  UNL197      0.1146
    789 N           5.8537    7.4957    4.9536 N.3   198  UNL198     -0.3437
    790 H           5.4120    7.7863    5.8247 H     198  UNL198      0.1146
    791 H           6.5793    8.1853    4.7629 H     198  UNL198      0.1146
    792 H           6.3412    6.6256    5.1625 H     198  UNL198      0.1146
    793 N           5.8345    9.5442    7.4934 N.3   199  UNL199     -0.3437
    794 H           5.4736    9.2792    6.5780 H     199  UNL199      0.1146
    795 H           6.5418    8.8493    7.7284 H     199  UNL199      0.1146
    796 H           6.3365   10.4201    7.3545 H     199  UNL199      0.1146
    797 N           6.1607    9.7017    9.6015 N.3   200  UNL200     -0.3437
    798 H           6.7975    8.9787    9.2698 H     200  UNL200      0.1146
    799 H           5.8449   10.2005    8.7709 H     200  UNL200      0.1146
    800 H           5.3433    9.2119    9.9626 H     200  UNL200      0.1146
    801 N           5.9302    9.7111   11.7058 N.3   201  UNL201     -0.3437
    802 H           6.8015   10.0339   11.2874 H     201  UNL201      0.1146
    803 H           5.2861    9.5588   10.9309 H     201  UNL201      0.1146
    804 H           6.1286    8.7890   12.0915 H     201  UNL201      0.1146
    805 N           5.8479    9.4767   13.4225 N.3   202  UNL202     -0.3437
    806 H           5.4616    9.7337   14.3297 H     202  UNL202      0.1146
    807 H           6.4886   10.2270   13.1673 H     202  UNL202      0.1146
    808 H           6.4283    8.6555   13.5867 H     202  UNL202      0.1146
    809 N           3.7526    9.4957   15.7521 N.3   203  UNL203     -0.3437
    810 H           4.1604    9.7863   16.6396 H     203  UNL203      0.1146
    811 H           4.0542   10.1853   15.0652 H     203  UNL203      0.1146
    812 H           4.2192    8.6256   15.5001 H     203  UNL203      0.1146
    813 N           5.8537    7.7178   17.9629 N.3   204  UNL204     -0.3437
    814 H           5.4120    6.8460   17.6744 H     204  UNL204      0.1146
    815 H           6.5793    7.4579   18.6295 H     204  UNL204      0.1146
    816 H           6.3412    8.0711   17.1408 H     204  UNL204      0.1146
    817 N           5.8645   12.9736    1.0785 N.3   205  UNL205     -0.3437
    818 H           5.3987   12.1018    0.8308 H     205  UNL205      0.1146
    819 H           6.6471   12.7137    1.6772 H     205  UNL205      0.1146
    820 H           6.2761   13.3270    0.2159 H     205  UNL205      0.1146
    821 N           5.8370   12.9555    3.1742 N.3   206  UNL206     -0.3437
    822 H           5.4755   12.0475    2.8857 H     206  UNL206      0.1146
    823 H           6.5831   12.7618    3.8408 H     206  UNL206      0.1146
    824 H           6.2908   13.3512    2.3521 H     206  UNL206      0.1146
    825 N           5.8537   11.7917    4.9522 N.3   207  UNL207     -0.3437
    826 H           5.4120   11.9217    5.8613 H     207  UNL207      0.1146
    827 H           6.5793   12.5043    4.8881 H     207  UNL207      0.1146
    828 H           6.3412   10.8983    5.0020 H     207  UNL207      0.1146
    829 N           5.9839   12.7515    7.5761 N.3   208  UNL208     -0.3437
    830 H           6.9461   13.0421    7.4087 H     208  UNL208      0.1146
    831 H           5.3969   13.4411    7.1089 H     208  UNL208      0.1146
    832 H           5.8595   11.8814    7.0605 H     208  UNL208      0.1146
    833 N           5.8892   13.0059    9.2957 N.3   209  UNL209     -0.3437
    834 H           5.8750   12.9560   10.3134 H     209  UNL209      0.1146
    835 H           6.8721   13.0507    9.0304 H     209  UNL209      0.1146
    836 H           5.5501   12.1035    8.9655 H     209  UNL209      0.1146
    837 N           5.8537   11.7515   11.2916 N.3   210  UNL210     -0.3437
    838 H           5.4120   12.0421   12.1627 H     210  UNL210      0.1146
    839 H           6.5793   12.4411   11.1009 H     210  UNL210      0.1146
    840 H           6.3412   10.8814   11.5005 H     210  UNL210      0.1146
    841 N           5.8537   12.7515   13.4042 N.3   211  UNL211     -0.3437
    842 H           5.4120   13.0421   14.2753 H     211  UNL211      0.1146
    843 H           6.5793   13.4411   13.2135 H     211  UNL211      0.1146
    844 H           6.3412   11.8814   13.6131 H     211  UNL211      0.1146
    845 N           5.8537   11.7515   15.5169 N.3   212  UNL212     -0.3437
    846 H           5.4120   12.0421   16.3880 H     212  UNL212      0.1146
    847 H           6.5793   12.4411   15.3262 H     212  UNL212      0.1146
    848 H           6.3412   10.8814   15.7258 H     212  UNL212      0.1146
    849 N           5.8323   12.0022   17.8647 N.3   213  UNL213     -0.3437
    850 H           6.3134   11.8634   18.7522 H     213  UNL213      0.1146
    851 H           6.5600   12.1946   17.1778 H     213  UNL213      0.1146
    852 H           5.4408   11.0958   17.6127 H     213  UNL213      0.1146
    853 N           7.8426    0.3796    0.8081 N.3   214  UNL214     -0.3437
    854 H           7.9704   -0.0036    1.7436 H     214  UNL214      0.1146
    855 H           7.7475    1.3871    0.9278 H     214  UNL214      0.1146
    856 H           8.7272    0.2367    0.3228 H     214  UNL214      0.1146
    857 N           8.0857    0.4226    3.3482 N.3   215  UNL215     -0.3437
    858 H           7.4642   -0.1766    2.8068 H     215  UNL215      0.1146
    859 H           8.9919    0.3798    2.8840 H     215  UNL215      0.1146
    860 H           7.7460    1.3739    3.2139 H     215  UNL215      0.1146
    861 N           8.1338    0.6878    5.3956 N.3   216  UNL216     -0.3437
    862 H           8.4776    1.0107    4.4922 H     216  UNL216      0.1146
    863 H           7.1332    0.5355    5.2772 H     216  UNL216      0.1146
    864 H           8.5432   -0.2343    5.5387 H     216  UNL216      0.1146
    865 N           7.8841    0.4354    7.0696 N.3   217  UNL217     -0.3437
    866 H           7.4112    0.7619    7.9111 H     217  UNL217      0.1146
    867 H           8.5466    1.1676    6.8177 H     217  UNL217      0.1146
    868 H           8.4459   -0.3652    7.3559 H     217  UNL217      0.1146
    869 N           7.8923    0.6780    9.5541 N.3   218  UNL218     -0.3437
    870 H           7.3902   -0.0582    9.0598 H     218  UNL218      0.1146
    871 H           8.5745    0.2049   10.1449 H     218  UNL218      0.1146
    872 H           8.4308    1.1750    8.8460 H     218  UNL218      0.1146
    873 N           7.8791    0.4330   11.3001 N.3   219  UNL219     -0.3437
    874 H           7.4374    0.8749   12.1051 H     219  UNL219      0.1146
    875 H           8.6047    1.0774   10.9890 H     219  UNL219      0.1146
    876 H           8.3666   -0.3856   11.6614 H     219  UNL219      0.1146
    877 N           8.1163    0.2813   13.4327 N.3   220  UNL220     -0.3437
    878 H           7.1718    0.2832   13.8152 H     220  UNL220      0.1146
    879 H           8.2559    1.2044   13.0244 H     220  UNL220      0.1146
    880 H           8.7438    0.2308   14.2340 H     220  UNL220      0.1146
    881 N           8.2758    0.6878   15.8189 N.3   221  UNL221     -0.3437
    882 H           7.7494    1.0107   15.0083 H     221  UNL221      0.1146
    883 H           7.5897    0.5355   16.5568 H     221  UNL221      0.1146
    884 H           8.6329   -0.2343   15.5728 H     221  UNL221      0.1146
    885 N           8.2813    0.4894   19.0603 N.3   222  UNL222     -0.3437
    886 H           8.4924   -0.1041   18.2594 H     222  UNL222      0.1146
    887 H           8.1441    1.4274   18.6864 H     222  UNL222      0.1146
    888 H           7.3700    0.1871   19.4015 H     222  UNL222      0.1146
    889 N           7.7953    2.6572    0.9844 N.3   223  UNL223     -0.3437
    890 H           7.9330    3.5875    1.3768 H     223  UNL223      0.1146
    891 H           8.0744    2.7208    0.0064 H     223  UNL223      0.1146
    892 H           8.4851    2.0574    1.4348 H     223  UNL223      0.1146
    893 N           8.0787    2.5192    3.2403 N.3   224  UNL224     -0.3437
    894 H           7.3937    2.4312    2.4911 H     224  UNL224      0.1146
    895 H           8.9727    2.6958    2.7843 H     224  UNL224      0.1146
    896 H           7.8427    3.3769    3.7373 H     224  UNL224      0.1146
    897 N           8.0137    2.5013    5.0334 N.3   225  UNL225     -0.3437
    898 H           8.3933    2.3632    5.9689 H     225  UNL225      0.1146
    899 H           7.1654    3.0531    5.1531 H     225  UNL225      0.1146
    900 H           8.6755    3.1054    4.5482 H     225  UNL225      0.1146
    901 N           8.2277    2.8618    7.0608 N.3   226  UNL226     -0.3437
    902 H           8.0943    3.5493    7.8010 H     226  UNL226      0.1146
    903 H           8.6716    2.0573    7.5014 H     226  UNL226      0.1146
    904 H           7.2942    2.5547    6.7911 H     226  UNL226      0.1146
    905 N           8.0693    2.7925    9.1079 N.3   227  UNL227     -0.3437
    906 H           8.0162    1.8127    9.3829 H     227  UNL227      0.1146
    907 H           7.2889    3.2567    9.5703 H     227  UNL227      0.1146
    908 H           8.9134    3.1611    9.5438 H     227  UNL227      0.1146
    909 N           8.3303    2.7904   11.6778 N.3   228  UNL228     -0.3437
    910 H           7.5348    3.3025   12.0562 H     228  UNL228      0.1146
    911 H           8.0499    1.8109   11.6574 H     228  UNL228      0.1146
    912 H           8.4128    3.0792   10.7041 H     228  UNL228      0.1146
    913 N           8.0237    2.5013   13.4840 N.3   229  UNL229     -0.3437
    914 H           8.4033    2.3632   14.4196 H     229  UNL229      0.1146
    915 H           7.1754    3.0531   13.6038 H     229  UNL229      0.1146
    916 H           8.6855    3.1054   12.9988 H     229  UNL229      0.1146
    917 N           7.8791    2.5941   15.8943 N.3   230  UNL230     -0.3437
    918 H           7.4374    3.1181   15.1402 H     230  UNL230      0.1146
    919 H           8.6047    2.0286   15.4560 H     230  UNL230      0.1146
    920 H           8.3666    3.2822   16.4664 H     230  UNL230      0.1146
    921 N           7.7953    2.7452   18.7483 N.3   231  UNL231     -0.3437
    922 H           7.9330    2.1517   19.5650 H     231  UNL231      0.1146
    923 H           8.0744    3.6832   19.0324 H     231  UNL231      0.1146
    924 H           8.4851    2.4429   18.0618 H     231  UNL231      0.1146
    925 N           8.1533    5.1995    1.1638 N.3   232  UNL232     -0.3437
    926 H           8.4145    5.5223    0.2332 H     232  UNL232      0.1146
    927 H           7.1461    5.0471    1.1358 H     232  UNL232      0.1146
    928 H           8.5739    4.2774    1.2695 H     232  UNL232      0.1146
    929 N           7.8132    5.0298    2.8946 N.3   233  UNL233     -0.3437
    930 H           8.3806    4.2205    2.6464 H     233  UNL233      0.1146
    931 H           7.6377    4.9534    3.8955 H     233  UNL233      0.1146
    932 H           8.4163    5.8426    2.7765 H     233  UNL233      0.1146
    933 N           7.8791    4.9840    4.9536 N.3   234  UNL234     -0.3437
    934 H           7.4374    5.2746    5.8247 H     234  UNL234      0.1146
    935 H           8.6047    5.6736    4.7629 H     234  UNL234      0.1146
    936 H           8.3666    4.1139    5.1625 H     234  UNL234      0.1146
    937 N           7.9511    5.1455    7.0544 N.3   235  UNL235     -0.3437
    938 H           7.8260    5.6722    7.9178 H     235  UNL235      0.1146
    939 H           8.9554    5.0058    6.9536 H     235  UNL235      0.1146
    940 H           7.5553    4.2228    7.2285 H     235  UNL235      0.1146
    941 N           7.8791    4.8499    9.5563 N.3   236  UNL236     -0.3437
    942 H           7.4374    5.3739    8.8022 H     236  UNL236      0.1146
    943 H           8.6047    4.2844    9.1180 H     236  UNL236      0.1146
    944 H           8.3666    5.5380   10.1284 H     236  UNL236      0.1146
    945 N           8.0106    4.9940   11.2260 N.3   237  UNL237     -0.3437
    946 H           7.2029    5.2846   11.7752 H     237  UNL237      0.1146
    947 H           8.7380    5.6836   11.4098 H     237  UNL237      0.1146
    948 H           8.3364    4.1239   11.6445 H     237  UNL237      0.1146
    949 N           7.8707    4.8203   13.7051 N.3   238  UNL238     -0.3437
    950 H           7.8420    5.6833   14.2462 H     238  UNL238      0.1146
    951 H           7.8058    5.0996   12.7273 H     238  UNL238      0.1146
    952 H           8.8094    4.4431   13.8276 H     238  UNL238      0.1146
    953 N           7.8791    4.9840   15.5169 N.3   239  UNL239     -0.3437
    954 H           7.4374    5.2746   16.3880 H     239  UNL239      0.1146
    955 H           8.6047    5.6736   15.3262 H     239  UNL239      0.1146
    956 H           8.3666    4.1139   15.7258 H     239  UNL239      0.1146
    957 N           7.8918    5.2217   18.7483 N.3   240  UNL240     -0.3437
    958 H           7.5124    4.7449   19.5650 H     240  UNL240      0.1146
    959 H           8.8000    5.5861   19.0324 H     240  UNL240      0.1146
    960 H           8.0837    4.4935   18.0618 H     240  UNL240      0.1146
    961 N           7.7953    7.3212    1.0398 N.3   241  UNL241     -0.3437
    962 H           7.9330    7.5087    0.0477 H     241  UNL241      0.1146
    963 H           8.0744    6.3517    1.1837 H     241  UNL241      0.1146
    964 H           8.4851    7.8879    1.5311 H     241  UNL241      0.1146
    965 N           7.8936    7.4786    3.1579 N.3   242  UNL242     -0.3437
    966 H           7.9881    6.6904    3.7968 H     242  UNL242      0.1146
    967 H           8.8400    7.8132    2.9826 H     242  UNL242      0.1146
    968 H           7.5662    7.0874    2.2757 H     242  UNL242      0.1146
    969 N           7.8998    7.3014    5.4138 N.3   243  UNL243     -0.3437
    970 H           7.3824    6.9855    4.5947 H     243  UNL243      0.1146
    971 H           8.6414    6.6177    5.5585 H     243  UNL243      0.1146
    972 H           8.3643    8.1650    5.1367 H     243  UNL243      0.1146
    973 N           7.8791    7.4620    7.3996 N.3   244  UNL244     -0.3437
    974 H           7.4374    6.5902    7.1111 H     244  UNL244      0.1146
    975 H           8.6047    7.2021    8.0662 H     244  UNL244      0.1146
    976 H           8.3666    7.8153    6.5775 H     244  UNL244      0.1146
    977 N           7.8999    7.2399    9.1625 N.3   245  UNL245     -0.3437
    978 H           7.3817    7.5305    9.9903 H     245  UNL245      0.1146
    979 H           8.6397    7.9295    9.0378 H     245  UNL245      0.1146
    980 H           8.3666    6.3698    9.4143 H     245  UNL245      0.1146
    981 N           7.8591    7.2884   11.7369 N.3   246  UNL246     -0.3437
    982 H           7.4174    7.0234   10.8577 H     246  UNL246      0.1146
    983 H           8.5847    6.5935   11.9074 H     246  UNL246      0.1146
    984 H           8.3466    8.1642   11.5535 H     246  UNL246      0.1146
    985 N           8.2016    7.4755   13.4699 N.3   247  UNL247     -0.3437
    986 H           7.1882    7.5250   13.3756 H     247  UNL247      0.1146
    987 H           8.3942    7.5382   14.4686 H     247  UNL247      0.1146
    988 H           8.4638    6.5308   13.1922 H     247  UNL247      0.1146
    989 N           7.9993    7.4655   15.9395 N.3   248  UNL248     -0.3437
    990 H           8.9615    7.5150   15.6078 H     248  UNL248      0.1146
    991 H           7.4122    7.5282   15.1089 H     248  UNL248      0.1146
    992 H           7.8749    6.5208   16.3006 H     248  UNL248      0.1146
    993 N           7.7953    7.2569   18.7483 N.3   249  UNL249     -0.3437
    994 H           7.9330    6.6633   19.5650 H     249  UNL249      0.1146
    995 H           8.0744    8.1948   19.0324 H     249  UNL249      0.1146
    996 H           8.4851    6.9545   18.0618 H     249  UNL249      0.1146
    997 N           7.7631    9.8380    0.8837 N.3   250  UNL250     -0.3437
    998 H           7.7964    9.0564    0.2308 H     250  UNL250      0.1146
    999 H           7.5765    9.4313    1.7993 H     250  UNL250      0.1146
   1000 H           8.7118   10.2071    0.9286 H     250  UNL250      0.1146
   1001 N           8.1533    9.7111    3.2764 N.3   251  UNL251     -0.3437
   1002 H           8.4145   10.0339    2.3459 H     251  UNL251      0.1146
   1003 H           7.1461    9.5588    3.2485 H     251  UNL251      0.1146
   1004 H           8.5739    8.7890    3.3822 H     251  UNL251      0.1146
   1005 N           7.8426    9.4028    5.0334 N.3   252  UNL252     -0.3437
   1006 H           7.9704    9.0196    5.9689 H     252  UNL252      0.1146
   1007 H           7.7475   10.4103    5.1531 H     252  UNL252      0.1146
   1008 H           8.7272    9.2600    4.5482 H     252  UNL252      0.1146
   1009 N           8.2177    9.6292    7.0508 N.3   253  UNL253     -0.3437
   1010 H           8.0843   10.3167    7.7910 H     253  UNL253      0.1146
   1011 H           8.6616    8.8247    7.4914 H     253  UNL253      0.1146
   1012 H           7.2842    9.3221    6.7811 H     253  UNL253      0.1146
   1013 N           8.3067    9.4467    9.2387 N.3   254  UNL254     -0.3437
   1014 H           7.7581   10.1918    8.8120 H     254  UNL254      0.1146
   1015 H           8.5620    9.7818   10.1666 H     254  UNL254      0.1146
   1016 H           7.6611    8.6725    9.3876 H     254  UNL254      0.1146
   1017 N           7.8791    9.6802   11.3541 N.3   255  UNL255     -0.3437
   1018 H           7.4374    9.1785   12.1232 H     255  UNL255      0.1146
   1019 H           8.6047   10.2583   11.7758 H     255  UNL255      0.1146
   1020 H           8.3666    8.9757   10.8024 H     255  UNL255      0.1146
   1021 N           7.8791    9.3616   13.7817 N.3   256  UNL256     -0.3437
   1022 H           7.4374    9.8855   13.0275 H     256  UNL256      0.1146
   1023 H           8.6047    8.7961   13.3433 H     256  UNL256      0.1146
   1024 H           8.3666   10.0496   14.3537 H     256  UNL256      0.1146
   1025 N           6.0093    9.4957   16.0268 N.3   257  UNL257     -0.3437
   1026 H           6.9715    9.7863   15.8593 H     257  UNL257      0.1146
   1027 H           5.4222   10.1853   15.5596 H     257  UNL257      0.1146
   1028 H           5.8849    8.6256   15.5112 H     257  UNL257      0.1146
   1029 N           6.2094    9.3852   17.6295 N.3   258  UNL258     -0.3437
   1030 H           6.2409    8.8574   18.5006 H     258  UNL258      0.1146
   1031 H           5.2227    9.5538   17.4388 H     258  UNL258      0.1146
   1032 H           6.6148   10.2965   17.8384 H     258  UNL258      0.1146
   1033 N           7.8791   12.9736    1.0616 N.3   259  UNL259     -0.3437
   1034 H           7.4374   12.1018    0.7731 H     259  UNL259      0.1146
   1035 H           8.6047   12.7137    1.7282 H     259  UNL259      0.1146
   1036 H           8.3666   13.3270    0.2395 H     259  UNL259      0.1146
   1037 N           8.2837   11.6544    3.2275 N.3   260  UNL260     -0.3437
   1038 H           8.3029   11.3430    2.2574 H     260  UNL260      0.1146
   1039 H           8.3547   12.6705    3.1979 H     260  UNL260      0.1146
   1040 H           7.3465   11.4482    3.5702 H     260  UNL260      0.1146
   1041 N           7.9099   12.4367    5.2245 N.3   261  UNL261     -0.3437
   1042 H           8.4112   12.7485    6.0550 H     261  UNL261      0.1146
   1043 H           7.3493   13.2313    4.9199 H     261  UNL261      0.1146
   1044 H           8.6175   12.2997    4.5042 H     261  UNL261      0.1146
   1045 N           7.8791   11.9498    7.1436 N.3   262  UNL262     -0.3437
   1046 H           7.4374   11.3810    7.8645 H     262  UNL262      0.1146
   1047 H           8.6047   12.4876    7.6155 H     262  UNL262      0.1146
   1048 H           8.3666   11.2977    6.5308 H     262  UNL262      0.1146
   1049 N           7.8791   11.7316    9.1823 N.3   263  UNL263     -0.3437
   1050 H           7.4374   12.0993   10.0237 H     263  UNL263      0.1146
   1051 H           8.6047   12.4013    8.9304 H     263  UNL263      0.1146
   1052 H           8.3666   10.8838    9.4685 H     263  UNL263      0.1146
   1053 N           8.0093   12.7515   11.8014 N.3   264  UNL264     -0.3437
   1054 H           8.9715   13.0421   11.6340 H     264  UNL264      0.1146
   1055 H           7.4222   13.4411   11.3343 H     264  UNL264      0.1146
   1056 H           7.8849   11.8814   11.2859 H     264  UNL264      0.1146
   1057 N           7.8791   12.7515   13.4042 N.3   265  UNL265     -0.3437
   1058 H           7.4374   13.0421   14.2753 H     265  UNL265      0.1146
   1059 H           8.6047   13.4411   13.2135 H     265  UNL265      0.1146
   1060 H           8.3666   11.8814   13.6131 H     265  UNL265      0.1146
   1061 N           7.8791   11.7515   15.5169 N.3   266  UNL266     -0.3437
   1062 H           7.4374   12.0421   16.3880 H     266  UNL266      0.1146
   1063 H           8.6047   12.4411   15.3262 H     266  UNL266      0.1146
   1064 H           8.3666   10.8814   15.7258 H     266  UNL266      0.1146
   1065 N           7.8791   11.7316   17.6329 N.3   267  UNL267     -0.3437
   1066 H           7.4374   12.0993   18.4744 H     267  UNL267      0.1146
   1067 H           8.6047   12.4013   17.3810 H     267  UNL267      0.1146
   1068 H           8.3666   10.8838   17.9192 H     267  UNL267      0.1146
   1069 N          10.1300    0.5733   -1.4465 N.3   268  UNL268     -0.3437
   1070 H           9.2202    0.1594   -1.2485 H     268  UNL268      0.1146
   1071 H          10.2171    1.3728   -0.8207 H     268  UNL268      0.1146
   1072 H          10.8219   -0.1058   -1.1325 H     268  UNL268      0.1146
   1073 N           9.9025    0.2779    0.9378 N.3   269  UNL269     -0.3437
   1074 H           9.4574    1.1944    0.9194 H     269  UNL269      0.1146
   1075 H          10.5609    0.2698    0.1601 H     269  UNL269      0.1146
   1076 H          10.4685    0.2576    1.7850 H     269  UNL269      0.1146
   1077 N          10.0495    0.2216    2.9711 N.3   270  UNL270     -0.3437
   1078 H          10.9991    0.4048    3.2922 H     270  UNL270      0.1146
   1079 H           9.4380    0.4659    3.7488 H     270  UNL270      0.1146
   1080 H           9.8627    0.9074    2.2409 H     270  UNL270      0.1146
   1081 N           9.9071    0.5382    7.5116 N.3   271  UNL271     -0.3437
   1082 H           9.4434    0.3139    6.6324 H     271  UNL271      0.1146
   1083 H          10.5673   -0.2191    7.6821 H     271  UNL271      0.1146
   1084 H          10.4714    1.3667    7.3282 H     271  UNL271      0.1146
   1085 N          10.2846    0.4984    9.6299 N.3   272  UNL272     -0.3437
   1086 H          10.7316    0.7727    8.7563 H     272  UNL272      0.1146
   1087 H           9.5067    1.1432    9.7620 H     272  UNL272      0.1146
   1088 H           9.8663   -0.4146    9.4568 H     272  UNL272      0.1146
   1089 N          10.3361    0.5886   13.4838 N.3   273  UNL273     -0.3437
   1090 H          10.2725    0.9017   14.4515 H     273  UNL273      0.1146
   1091 H          10.2434   -0.4259   13.5102 H     273  UNL273      0.1146
   1092 H           9.4973    0.9353   13.0207 H     273  UNL273      0.1146
   1093 N           9.9028    0.5298   15.5187 N.3   274  UNL274     -0.3437
   1094 H           9.4890    0.6977   16.4346 H     274  UNL274      0.1146
   1095 H          10.6874    1.1755   15.4423 H     274  UNL274      0.1146
   1096 H          10.3101   -0.4033   15.5612 H     274  UNL274      0.1146
   1097 N          10.3067    0.4894   19.0703 N.3   275  UNL275     -0.3437
   1098 H          10.5178   -0.1041   18.2694 H     275  UNL275      0.1146
   1099 H          10.1695    1.4274   18.6964 H     275  UNL275      0.1146
   1100 H           9.3953    0.1871   19.4115 H     275  UNL275      0.1146
   1101 N          10.0854    2.4968    0.8081 N.3   276  UNL276     -0.3437
   1102 H          10.4836    2.4288    1.7436 H     276  UNL276      0.1146
   1103 H           9.1520    2.8878    0.9278 H     276  UNL276      0.1146
   1104 H          10.6283    3.2096    0.3228 H     276  UNL276      0.1146
   1105 N          10.1111    2.9436    2.8355 N.3   277  UNL277     -0.3437
   1106 H           9.4896    3.2665    3.5757 H     277  UNL277      0.1146
   1107 H          11.0172    2.7913    3.2760 H     277  UNL277      0.1146
   1108 H           9.7714    2.0216    2.5658 H     277  UNL277      0.1146
   1109 N           9.9045    0.8503    5.2869 N.3   278  UNL278     -0.3437
   1110 H           9.4628   -0.0215    4.9984 H     278  UNL278      0.1146
   1111 H          10.6301    0.5904    5.9535 H     278  UNL278      0.1146
   1112 H          10.3920    1.2037    4.4648 H     278  UNL278      0.1146
   1113 N           9.8207    2.7452    7.1850 N.3   279  UNL279     -0.3437
   1114 H           9.9584    2.1517    8.0017 H     279  UNL279      0.1146
   1115 H          10.0998    3.6832    7.4691 H     279  UNL279      0.1146
   1116 H          10.5104    2.4429    6.4985 H     279  UNL279      0.1146
   1117 N           9.8657    2.6336    9.5384 N.3   280  UNL280     -0.3437
   1118 H           9.5934    3.2157    8.7476 H     280  UNL280      0.1146
   1119 H          10.5142    1.9408    9.1670 H     280  UNL280      0.1146
   1120 H          10.4160    3.2328   10.1519 H     280  UNL280      0.1146
   1121 N           9.9045    0.8503   11.6249 N.3   281  UNL281     -0.3437
   1122 H           9.4628   -0.0215   11.3364 H     281  UNL281      0.1146
   1123 H          10.6301    0.5904   12.2915 H     281  UNL281      0.1146
   1124 H          10.3920    1.2037   10.8028 H     281  UNL281      0.1146
   1125 N           9.8323    2.7520   13.4957 N.3   282  UNL282     -0.3437
   1126 H           9.7868    3.0479   14.4697 H     282  UNL282      0.1146
   1127 H          10.4879    3.3853   13.0401 H     282  UNL282      0.1146
   1128 H          10.2823    1.8378   13.5006 H     282  UNL282      0.1146
   1129 N          10.2776    2.9121   15.5959 N.3   283  UNL283     -0.3437
   1130 H          10.5731    2.7617   16.5595 H     283  UNL283      0.1146
   1131 H          10.1513    1.9847   15.1928 H     283  UNL283      0.1146
   1132 H           9.3473    3.3245   15.6486 H     283  UNL283      0.1146
   1133 N           9.9171    2.9659   18.7483 N.3   284  UNL284     -0.3437
   1134 H           9.5378    2.4891   19.5650 H     284  UNL284      0.1146
   1135 H          10.8253    3.3303   19.0324 H     284  UNL284      0.1146
   1136 H          10.1090    2.2377   18.0618 H     284  UNL284      0.1146
   1137 N           9.9045    4.9840    0.7283 N.3   285  UNL285     -0.3437
   1138 H           9.4628    5.2746    1.5994 H     285  UNL285      0.1146
   1139 H          10.6301    5.6736    0.5376 H     285  UNL285      0.1146
   1140 H          10.3920    4.1139    0.9372 H     285  UNL285      0.1146
   1141 N           9.9077    4.9668    2.8409 N.3   286  UNL286     -0.3437
   1142 H           9.4417    5.2165    3.7120 H     286  UNL286      0.1146
   1143 H          10.5684    5.7188    2.6502 H     286  UNL286      0.1146
   1144 H          10.4715    4.1441    3.0498 H     286  UNL286      0.1146
   1145 N           9.9045    2.9840    4.9536 N.3   287  UNL287     -0.3437
   1146 H           9.4628    3.2746    5.8247 H     287  UNL287      0.1146
   1147 H          10.6301    3.6736    4.7629 H     287  UNL287      0.1146
   1148 H          10.3920    2.1139    5.1625 H     287  UNL287      0.1146
   1149 N          10.3067    5.0570    7.4922 N.3   288  UNL288     -0.3437
   1150 H          10.5178    4.2713    6.8787 H     288  UNL288      0.1146
   1151 H          10.1695    5.8613    6.8817 H     288  UNL288      0.1146
   1152 H           9.3953    4.8566    7.9017 H     288  UNL288      0.1146
   1153 N          10.2675    5.0186    9.1670 N.3   289  UNL289     -0.3437
   1154 H           9.3012    5.2366    8.9278 H     289  UNL289      0.1146
   1155 H          10.5349    5.6849    9.8901 H     289  UNL289      0.1146
   1156 H          10.2457    4.1061    9.6200 H     289  UNL289      0.1146
   1157 N           9.9045    2.9840   11.2916 N.3   290  UNL290     -0.3437
   1158 H           9.4628    3.2746   12.1627 H     290  UNL290      0.1146
   1159 H          10.6301    3.6736   11.1009 H     290  UNL290      0.1146
   1160 H          10.3920    2.1139   11.5005 H     290  UNL290      0.1146
   1161 N           9.9045    4.8499   13.7817 N.3   291  UNL291     -0.3437
   1162 H           9.4628    5.3739   13.0275 H     291  UNL291      0.1146
   1163 H          10.6301    4.2844   13.3433 H     291  UNL291      0.1146
   1164 H          10.3920    5.5380   14.3537 H     291  UNL291      0.1146
   1165 N          10.0359    4.9840   15.4514 N.3   292  UNL292     -0.3437
   1166 H           9.2282    5.2746   16.0005 H     292  UNL292      0.1146
   1167 H          10.7633    5.6736   15.6351 H     292  UNL292      0.1146
   1168 H          10.3618    4.1139   15.8699 H     292  UNL292      0.1146
   1169 N           9.8207    5.0011   18.7483 N.3   293  UNL293     -0.3437
   1170 H           9.9584    4.4075   19.5650 H     293  UNL293      0.1146
   1171 H          10.0998    5.9390   19.0324 H     293  UNL293      0.1146
   1172 H          10.5104    4.6987   18.0618 H     293  UNL293      0.1146
   1173 N           9.8853    7.3014    1.2664 N.3   294  UNL294     -0.3437
   1174 H           9.5229    6.9855    0.3680 H     294  UNL294      0.1146
   1175 H          10.5891    6.6177    1.5416 H     294  UNL294      0.1146
   1176 H          10.3919    8.1650    1.0770 H     294  UNL294      0.1146
   1177 N           9.9045    7.4620    3.2869 N.3   295  UNL295     -0.3437
   1178 H           9.4628    6.5902    2.9984 H     295  UNL295      0.1146
   1179 H          10.6301    7.2021    3.9535 H     295  UNL295      0.1146
   1180 H          10.3920    7.8153    2.4648 H     295  UNL295      0.1146
   1181 N           9.8680    7.4358    7.3688 N.3   296  UNL296     -0.3437
   1182 H           9.9958    7.3994    6.3585 H     296  UNL296      0.1146
   1183 H           9.7729    6.4685    7.6749 H     296  UNL296      0.1146
   1184 H          10.7526    7.7659    7.7520 H     296  UNL296      0.1146
   1185 N           9.9045    7.4472    9.5202 N.3   297  UNL297     -0.3437
   1186 H           9.4628    6.5881    9.1957 H     297  UNL297      0.1146
   1187 H          10.6301    7.1598   10.1754 H     297  UNL297      0.1146
   1188 H          10.3920    7.8344    8.7135 H     297  UNL297      0.1146
   1189 N          10.3436    5.2515   11.3512 N.3   298  UNL298     -0.3437
   1190 H           9.8979    4.3444   11.4810 H     298  UNL298      0.1146
   1191 H           9.6355    5.8556   10.9364 H     298  UNL298      0.1146
   1192 H          10.5123    5.6180   12.2869 H     298  UNL298      0.1146
   1193 N           9.9347    7.4201   13.8184 N.3   299  UNL299     -0.3437
   1194 H          10.6883    7.9636   13.4001 H     299  UNL299      0.1146
   1195 H           9.3546    7.1015   13.0436 H     299  UNL299      0.1146
   1196 H          10.3718    6.5843   14.2041 H     299  UNL299      0.1146
   1197 N          10.1835    7.2234   15.8793 N.3   300  UNL300     -0.3437
   1198 H           9.7886    6.7434   15.0718 H     300  UNL300      0.1146
   1199 H          10.4958    8.1323   15.5407 H     300  UNL300      0.1146
   1200 H           9.4013    7.4105   16.5050 H     300  UNL300      0.1146
   1201 N           9.8207    7.2569   18.7483 N.3   301  UNL301     -0.3437
   1202 H           9.9584    6.6633   19.5650 H     301  UNL301      0.1146
   1203 H          10.0998    8.1948   19.0324 H     301  UNL301      0.1146
   1204 H          10.5104    6.9545   18.0618 H     301  UNL301      0.1146
   1205 N          10.2802    9.2973    1.0046 N.3   302  UNL302     -0.3437
   1206 H          10.0494    9.3900    0.0164 H     302  UNL302      0.1146
   1207 H          10.6691   10.1956    1.2876 H     302  UNL302      0.1146
   1208 H           9.3905    9.2099    1.4937 H     302  UNL302      0.1146
   1209 N           9.9045    9.3012    3.0933 N.3   303  UNL303     -0.3437
   1210 H           9.4628   10.1689    2.7927 H     303  UNL303      0.1146
   1211 H          10.6301    9.1025    2.4060 H     303  UNL303      0.1146
   1212 H          10.3920    9.5202    3.9610 H     303  UNL303      0.1146
   1213 N          10.2289    9.7017    5.3643 N.3   304  UNL304     -0.3437
   1214 H          10.8334    8.9787    4.9766 H     304  UNL304      0.1146
   1215 H           9.8397   10.2005    4.5654 H     304  UNL304      0.1146
   1216 H           9.4473    9.2119    5.7973 H     304  UNL304      0.1146
   1217 N           9.9708    9.4957    7.0229 N.3   305  UNL305     -0.3437
   1218 H           9.3127    9.7863    7.7446 H     305  UNL305      0.1146
   1219 H          10.7209   10.1853    7.0326 H     305  UNL305      0.1146
   1220 H          10.3849    8.6256    7.3542 H     305  UNL305      0.1146
   1221 N           9.9045    9.3616    9.5563 N.3   306  UNL306     -0.3437
   1222 H           9.4628    9.8855    8.8022 H     306  UNL306      0.1146
   1223 H          10.6301    8.7961    9.1180 H     306  UNL306      0.1146
   1224 H          10.3920   10.0496   10.1284 H     306  UNL306      0.1146
   1225 N           9.9045    7.4448   11.3040 N.3   307  UNL307     -0.3437
   1226 H           9.4628    7.9298   12.0838 H     307  UNL307      0.1146
   1227 H          10.6301    8.0712   10.9584 H     307  UNL307      0.1146
   1228 H          10.3920    6.6470   11.7094 H     307  UNL307      0.1146
   1229 N          10.0284    9.5657   13.3517 N.3   308  UNL308     -0.3437
   1230 H          10.2619    8.7956   13.9768 H     308  UNL308      0.1146
   1231 H           9.0632    9.8157   13.5623 H     308  UNL308      0.1146
   1232 H          10.5958   10.3558   13.6554 H     308  UNL308      0.1146
   1233 N           7.9045    9.4957   17.5169 N.3   309  UNL309     -0.3437
   1234 H           7.4628    9.7863   18.3880 H     309  UNL309      0.1146
   1235 H           8.6301   10.1853   17.3262 H     309  UNL309      0.1146
   1236 H           8.3920    8.6256   17.7258 H     309  UNL309      0.1146
   1237 N           9.9171    9.7334   18.7483 N.3   310  UNL310     -0.3437
   1238 H           9.5378    9.2565   19.5650 H     310  UNL310      0.1146
   1239 H          10.8253   10.0978   19.0324 H     310  UNL310      0.1146
   1240 H          10.1090    9.0051   18.0618 H     310  UNL310      0.1146
   1241 N           9.9045   12.9869    0.8672 N.3   311  UNL311     -0.3437
   1242 H           9.4628   12.2190    1.3707 H     311  UNL311      0.1146
   1243 H          10.6301   13.3475    1.4851 H     311  UNL311      0.1146
   1244 H          10.3920   12.5626    0.0793 H     311  UNL311      0.1146
   1245 N           9.9045   11.7515    2.8409 N.3   312  UNL312     -0.3437
   1246 H           9.4628   12.0421    3.7120 H     312  UNL312      0.1146
   1247 H          10.6301   12.4411    2.6502 H     312  UNL312      0.1146
   1248 H          10.3920   10.8814    3.0498 H     312  UNL312      0.1146
   1249 N          10.0346   12.7515    5.4635 N.3   313  UNL313     -0.3437
   1250 H          10.9968   13.0421    5.2960 H     313  UNL313      0.1146
   1251 H           9.4476   13.4411    4.9963 H     313  UNL313      0.1146
   1252 H           9.9102   11.8814    4.9479 H     313  UNL313      0.1146
   1253 N           9.9045   12.9736    7.3996 N.3   314  UNL314     -0.3437
   1254 H           9.4628   12.1018    7.1111 H     314  UNL314      0.1146
   1255 H          10.6301   12.7137    8.0662 H     314  UNL314      0.1146
   1256 H          10.3920   13.3270    6.5775 H     314  UNL314      0.1146
   1257 N           9.9045   11.7515    9.1789 N.3   315  UNL315     -0.3437
   1258 H           9.4628   12.0421   10.0500 H     315  UNL315      0.1146
   1259 H          10.6301   12.4411    8.9882 H     315  UNL315      0.1146
   1260 H          10.3920   10.8814    9.3878 H     315  UNL315      0.1146
   1261 N           9.8945   11.9461   11.3541 N.3   316  UNL316     -0.3437
   1262 H           9.4528   11.4444   12.1232 H     316  UNL316      0.1146
   1263 H          10.6201   12.5241   11.7758 H     316  UNL316      0.1146
   1264 H          10.3820   11.2416   10.8024 H     316  UNL316      0.1146
   1265 N           9.9045   12.7515   13.4042 N.3   317  UNL317     -0.3437
   1266 H           9.4628   13.0421   14.2753 H     317  UNL317      0.1146
   1267 H          10.6301   13.4411   13.2135 H     317  UNL317      0.1146
   1268 H          10.3920   11.8814   13.6131 H     317  UNL317      0.1146
   1269 N           9.9045   11.7515   15.5169 N.3   318  UNL318     -0.3437
   1270 H           9.4628   12.0421   16.3880 H     318  UNL318      0.1146
   1271 H          10.6301   12.4411   15.3262 H     318  UNL318      0.1146
   1272 H          10.3920   10.8814   15.7258 H     318  UNL318      0.1146
   1273 N           9.9045   11.7515   17.6295 N.3   319  UNL319     -0.3437
   1274 H           9.4628   12.0421   18.5006 H     319  UNL319      0.1146
   1275 H          10.6301   12.4411   17.4388 H     319  UNL319      0.1146
   1276 H          10.3920   10.8814   17.8384 H     319  UNL319      0.1146
   1277 N          11.9298    0.6945    1.0616 N.3   320  UNL320     -0.3437
   1278 H          11.4881   -0.1773    0.7731 H     320  UNL320      0.1146
   1279 H          12.6554    0.4346    1.7282 H     320  UNL320      0.1146
   1280 H          12.4173    1.0479    0.2395 H     320  UNL320      0.1146
   1281 N          11.8628    0.5601    5.3033 N.3   321  UNL321     -0.3437
   1282 H          12.0607    1.1645    4.5072 H     321  UNL321      0.1146
   1283 H          11.9178   -0.3947    4.9515 H     321  UNL321      0.1146
   1284 H          12.6494    0.6698    5.9417 H     321  UNL321      0.1146
   1285 N          11.9707   -1.7395    7.2676 N.3   322  UNL322     -0.3437
   1286 H          11.4487   -0.8697    7.1712 H     322  UNL322      0.1146
   1287 H          12.6967   -1.7121    6.5531 H     322  UNL322      0.1146
   1288 H          12.4547   -1.6790    8.1623 H     322  UNL322      0.1146
   1289 N          11.9298    0.5833    9.1833 N.3   323  UNL323     -0.3437
   1290 H          11.4881    0.4167   10.0863 H     323  UNL323      0.1146
   1291 H          12.6554    1.2792    9.3496 H     323  UNL323      0.1146
   1292 H          12.4173   -0.2794    8.9456 H     323  UNL323      0.1146
   1293 N          11.9298    0.7078   11.4305 N.3   324  UNL324     -0.3437
   1294 H          11.4881   -0.0601   11.9340 H     324  UNL324      0.1146
   1295 H          12.6554    1.0684   12.0484 H     324  UNL324      0.1146
   1296 H          12.4173    0.2835   10.6426 H     324  UNL324      0.1146
   1297 N          11.9198    0.4925   13.4026 N.3   325  UNL325     -0.3437
   1298 H          11.4781    0.7036   14.2963 H     325  UNL325      0.1146
   1299 H          12.6454    1.1964   13.2747 H     325  UNL325      0.1146
   1300 H          12.4073   -0.3929   13.5325 H     325  UNL325      0.1146
   1301 N          11.9298    0.7111   15.6645 N.3   326  UNL326     -0.3437
   1302 H          11.4881   -0.0771   16.1357 H     326  UNL326      0.1146
   1303 H          12.6554    1.0457   16.2969 H     326  UNL326      0.1146
   1304 H          12.4173    0.3199   14.8597 H     326  UNL326      0.1146
   1305 N          11.9263    2.7259    0.7316 N.3   327  UNL327     -0.3437
   1306 H          11.5195    3.1318    1.5731 H     327  UNL327      0.1146
   1307 H          12.7092    3.3276    0.4797 H     327  UNL327      0.1146
   1308 H          12.3357    1.8377    1.0179 H     327  UNL327      0.1146
   1309 N          11.9298    1.0182    2.8409 N.3   328  UNL328     -0.3437
   1310 H          11.4881    1.3088    3.7120 H     328  UNL328      0.1146
   1311 H          12.6554    1.7078    2.6502 H     328  UNL328      0.1146
   1312 H          12.4173    0.1481    3.0498 H     328  UNL328      0.1146
   1313 N          11.9744    2.9216    5.3778 N.3   329  UNL329     -0.3437
   1314 H          12.7738    3.3952    4.9595 H     329  UNL329      0.1146
   1315 H          11.3680    2.6564    4.6029 H     329  UNL329      0.1146
   1316 H          12.3346    2.0499    5.7635 H     329  UNL329      0.1146
   1317 N          11.9098    0.6034    7.4528 N.3   330  UNL330     -0.3437
   1318 H          11.4681    1.0825    6.6694 H     330  UNL330      0.1146
   1319 H          12.6354    0.0133    7.0483 H     330  UNL330      0.1146
   1320 H          12.3973    1.3238    7.9837 H     330  UNL330      0.1146
   1321 N          11.9640    2.8491    9.6363 N.3   331  UNL331     -0.3437
   1322 H          12.9438    2.6825    9.8612 H     331  UNL331      0.1146
   1323 H          11.9611    3.5450    8.8919 H     331  UNL331      0.1146
   1324 H          11.6218    1.9864    9.2155 H     331  UNL331      0.1146
   1325 N          11.9158    2.9503   11.4318 N.3   332  UNL332     -0.3437
   1326 H          11.8673    2.0785   10.9065 H     332  UNL332      0.1146
   1327 H          11.8447    2.6904   12.4146 H     332  UNL332      0.1146
   1328 H          12.8629    3.3037   11.3027 H     332  UNL332      0.1146
   1329 N          11.9298    2.9503   13.7375 N.3   333  UNL333     -0.3437
   1330 H          11.4881    2.0785   13.4490 H     333  UNL333      0.1146
   1331 H          12.6554    2.6904   14.4041 H     333  UNL333      0.1146
   1332 H          12.4173    3.3037   12.9154 H     333  UNL333      0.1146
   1333 N          11.9109    2.7450   15.5332 N.3   334  UNL334     -0.3437
   1334 H          11.5466    2.9497   16.4626 H     334  UNL334      0.1146
   1335 H          12.6109    3.4605   15.3421 H     334  UNL334      0.1146
   1336 H          12.4222    1.8677   15.6188 H     334  UNL334      0.1146
   1337 N          11.9217    0.7717   17.6357 N.3   335  UNL335     -0.3437
   1338 H          11.5220    0.4733   18.5243 H     335  UNL335      0.1146
   1339 H          12.3761    1.6654   17.8181 H     335  UNL335      0.1146
   1340 H          12.6709    0.1126   17.4293 H     335  UNL335      0.1146
   1341 N          11.9298    4.9840    0.7283 N.3   336  UNL336     -0.3437
   1342 H          11.4881    5.2746    1.5994 H     336  UNL336      0.1146
   1343 H          12.6554    5.6736    0.5376 H     336  UNL336      0.1146
   1344 H          12.4173    4.1139    0.9372 H     336  UNL336      0.1146
   1345 N          12.3871    2.9472    2.9479 N.3   337  UNL337     -0.3437
   1346 H          11.9550    3.7608    2.5125 H     337  UNL337      0.1146
   1347 H          12.4313    3.1524    3.9451 H     337  UNL337      0.1146
   1348 H          11.7173    2.1858    2.8474 H     337  UNL337      0.1146
   1349 N          12.0678    4.8912    4.9116 N.3   338  UNL338     -0.3437
   1350 H          11.4783    4.5080    5.6491 H     338  UNL338      0.1146
   1351 H          11.9155    5.8987    4.9252 H     338  UNL338      0.1146
   1352 H          13.0292    4.7484    5.2177 H     338  UNL338      0.1146
   1353 N          11.9298    3.2062    7.3996 N.3   339  UNL339     -0.3437
   1354 H          11.4881    2.3344    7.1111 H     339  UNL339      0.1146
   1355 H          12.6554    2.9462    8.0662 H     339  UNL339      0.1146
   1356 H          12.4173    3.5595    6.5775 H     339  UNL339      0.1146
   1357 N          11.8950    4.8499    9.3042 N.3   340  UNL340     -0.3437
   1358 H          12.3519    5.3739    8.5592 H     340  UNL340      0.1146
   1359 H          12.6236    4.2844    9.7376 H     340  UNL340      0.1146
   1360 H          11.6202    5.5380   10.0038 H     340  UNL340      0.1146
   1361 N          11.9298    4.8800   11.3326 N.3   341  UNL341     -0.3437
   1362 H          11.4881    5.5554   11.9547 H     341  UNL341      0.1146
   1363 H          12.6554    5.3916   10.8323 H     341  UNL341      0.1146
   1364 H          12.4173    4.2193   11.9360 H     341  UNL341      0.1146
   1365 N          12.0744    4.7571   13.4840 N.3   342  UNL342     -0.3437
   1366 H          12.4540    4.6190   14.4196 H     342  UNL342      0.1146
   1367 H          11.2261    5.3089   13.6038 H     342  UNL342      0.1146
   1368 H          12.7362    5.3613   12.9988 H     342  UNL342      0.1146
   1369 N          11.9498    5.0426   15.9622 N.3   343  UNL343     -0.3437
   1370 H          11.5081    4.7776   15.0830 H     343  UNL343      0.1146
   1371 H          12.6754    4.3477   16.1327 H     343  UNL343      0.1146
   1372 H          12.4373    5.9184   15.7789 H     343  UNL343      0.1146
   1373 N          11.9298    3.2062   17.9629 N.3   344  UNL344     -0.3437
   1374 H          11.4881    2.3344   17.6744 H     344  UNL344      0.1146
   1375 H          12.6554    2.9462   18.6295 H     344  UNL344      0.1146
   1376 H          12.4173    3.5595   17.1408 H     344  UNL344      0.1146
   1377 N          12.2784    7.1549   -1.3867 N.3   345  UNL345     -0.3437
   1378 H          12.1450    8.1621   -1.4651 H     345  UNL345      0.1146
   1379 H          12.7223    6.9999   -0.4827 H     345  UNL345      0.1146
   1380 H          11.3450    6.7527   -1.3138 H     345  UNL345      0.1146
   1381 N          12.0062    7.4553    1.1468 N.3   346  UNL346     -0.3437
   1382 H          12.8975    7.7781    0.7730 H     346  UNL346      0.1146
   1383 H          11.4021    7.3029    0.3405 H     346  UNL346      0.1146
   1384 H          12.1849    6.5332    1.5420 H     346  UNL346      0.1146
   1385 N          12.2684    7.4125    2.8481 N.3   347  UNL347     -0.3437
   1386 H          12.1350    7.9563    3.6995 H     347  UNL347      0.1146
   1387 H          12.7123    6.5421    3.1375 H     347  UNL347      0.1146
   1388 H          11.3350    7.1586    2.5278 H     347  UNL347      0.1146
   1389 N          12.0538    7.1123    5.0617 N.3   348  UNL348     -0.3437
   1390 H          12.2872    7.1232    6.0535 H     348  UNL348      0.1146
   1391 H          11.0886    7.4327    4.9968 H     348  UNL348      0.1146
   1392 H          12.6211    7.8413    4.6316 H     348  UNL348      0.1146
   1393 N          12.2601    5.1194    7.0662 N.3   349  UNL349     -0.3437
   1394 H          12.2917    4.5916    7.9373 H     349  UNL349      0.1146
   1395 H          11.2734    5.2880    6.8755 H     349  UNL349      0.1146
   1396 H          12.6655    6.0306    7.2751 H     349  UNL349      0.1146
   1397 N          11.9844    7.4332    9.6031 N.3   350  UNL350     -0.3437
   1398 H          12.7838    7.9068    9.1848 H     350  UNL350      0.1146
   1399 H          11.3780    7.1680    8.8282 H     350  UNL350      0.1146
   1400 H          12.3446    6.5615    9.9888 H     350  UNL350      0.1146
   1401 N          11.9298    7.2399   11.2916 N.3   351  UNL351     -0.3437
   1402 H          11.4881    7.5305   12.1627 H     351  UNL351      0.1146
   1403 H          12.6554    7.9295   11.1009 H     351  UNL351      0.1146
   1404 H          12.4173    6.3698   11.5005 H     351  UNL351      0.1146
   1405 N          11.9298    7.2399   13.4042 N.3   352  UNL352     -0.3437
   1406 H          11.4881    7.5305   14.2753 H     352  UNL352      0.1146
   1407 H          12.6554    7.9295   13.2135 H     352  UNL352      0.1146
   1408 H          12.4173    6.3698   13.6131 H     352  UNL352      0.1146
   1409 N          12.3021    7.0487   15.6534 N.3   353  UNL353     -0.3437
   1410 H          11.4154    7.0507   15.1514 H     353  UNL353      0.1146
   1411 H          12.7087    7.9719   15.5090 H     353  UNL353      0.1146
   1412 H          12.0645    6.9982   16.6430 H     353  UNL353      0.1146
   1413 N          11.9298    5.2200   17.6329 N.3   354  UNL354     -0.3437
   1414 H          11.4881    5.5877   18.4744 H     354  UNL354      0.1146
   1415 H          12.6554    5.8897   17.3810 H     354  UNL354      0.1146
   1416 H          12.4173    4.3722   17.9192 H     354  UNL354      0.1146
   1417 N          11.9298    9.4957    0.7283 N.3   355  UNL355     -0.3437
   1418 H          11.4881    9.7863    1.5994 H     355  UNL355      0.1146
   1419 H          12.6554   10.1853    0.5376 H     355  UNL355      0.1146
   1420 H          12.4173    8.6256    0.9372 H     355  UNL355      0.1146
   1421 N          12.2282    9.7012    2.8522 N.3   356  UNL356     -0.3437
   1422 H          12.4251    8.7176    2.6729 H     356  UNL356      0.1146
   1423 H          11.2170    9.7707    2.9571 H     356  UNL356      0.1146
   1424 H          12.6203    9.9033    3.7708 H     356  UNL356      0.1146
   1425 N          12.3218    9.7294    5.2482 N.3   357  UNL357     -0.3437
   1426 H          11.7957    9.9669    4.4084 H     357  UNL357      0.1146
   1427 H          11.6291    9.5767    5.9798 H     357  UNL357      0.1146
   1428 H          12.7442    8.8199    5.0672 H     357  UNL357      0.1146
   1429 N          11.9298    7.7178    7.3996 N.3   358  UNL358     -0.3437
   1430 H          11.4881    6.8460    7.1111 H     358  UNL358      0.1146
   1431 H          12.6554    7.4579    8.0662 H     358  UNL358      0.1146
   1432 H          12.4173    8.0711    6.5775 H     358  UNL358      0.1146
   1433 N          11.9298    9.5442    9.6243 N.3   359  UNL359     -0.3437
   1434 H          11.4881    9.2792    8.7450 H     359  UNL359      0.1146
   1435 H          12.6554    8.8493    9.7947 H     359  UNL359      0.1146
   1436 H          12.4173   10.4201    9.4409 H     359  UNL359      0.1146
   1437 N          10.3162    9.5451   11.2916 N.3   360  UNL360     -0.3437
   1438 H          10.7493    9.2417   12.1627 H     360  UNL360      0.1146
   1439 H           9.5708    8.8770   11.1009 H     360  UNL360      0.1146
   1440 H           9.8544   10.4291   11.5005 H     360  UNL360      0.1146
   1441 N          12.1670    9.3045   13.4327 N.3   361  UNL361     -0.3437
   1442 H          11.2225    9.3065   13.8152 H     361  UNL361      0.1146
   1443 H          12.3067   10.2277   13.0244 H     361  UNL361      0.1146
   1444 H          12.7945    9.2541   14.2340 H     361  UNL361      0.1146
   1445 N          10.1215    9.7402   15.9399 N.3   362  UNL362     -0.3437
   1446 H           9.5694    8.9338   16.2283 H     362  UNL362      0.1146
   1447 H          11.0574    9.3857   15.7481 H     362  UNL362      0.1146
   1448 H           9.7424   10.0331   15.0405 H     362  UNL362      0.1146
   1449 N          11.9548    7.1878   18.7907 N.3   363  UNL363     -0.3437
   1450 H          11.4285    7.9452   19.2240 H     363  UNL363      0.1146
   1451 H          12.3906    7.5875   17.9608 H     363  UNL363      0.1146
   1452 H          12.7168    6.9724   19.4320 H     363  UNL363      0.1146
   1453 N          11.9298   12.9736    1.0616 N.3   364  UNL364     -0.3437
   1454 H          11.4881   12.1018    0.7731 H     364  UNL364      0.1146
   1455 H          12.6554   12.7137    1.7282 H     364  UNL364      0.1146
   1456 H          12.4173   13.3270    0.2395 H     364  UNL364      0.1146
   1457 N          11.9298   11.7515    2.8409 N.3   365  UNL365     -0.3437
   1458 H          11.4881   12.0421    3.7120 H     365  UNL365      0.1146
   1459 H          12.6554   12.4411    2.6502 H     365  UNL365      0.1146
   1460 H          12.4173   10.8814    3.0498 H     365  UNL365      0.1146
   1461 N          11.9298   11.7515    4.9536 N.3   366  UNL366     -0.3437
   1462 H          11.4881   12.0421    5.8247 H     366  UNL366      0.1146
   1463 H          12.6554   12.4411    4.7629 H     366  UNL366      0.1146
   1464 H          12.4173   10.8814    5.1625 H     366  UNL366      0.1146
   1465 N          11.9298   11.7515    7.0662 N.3   367  UNL367     -0.3437
   1466 H          11.4881   12.0421    7.9373 H     367  UNL367      0.1146
   1467 H          12.6554   12.4411    6.8755 H     367  UNL367      0.1146
   1468 H          12.4173   10.8814    7.2751 H     367  UNL367      0.1146
   1469 N          12.0600   12.7515    9.6888 N.3   368  UNL368     -0.3437
   1470 H          13.0222   13.0421    9.5213 H     368  UNL368      0.1146
   1471 H          11.4730   13.4411    9.2216 H     368  UNL368      0.1146
   1472 H          11.9356   11.8814    9.1732 H     368  UNL368      0.1146
   1473 N          11.9298   11.7515   11.2916 N.3   369  UNL369     -0.3437
   1474 H          11.4881   12.0421   12.1627 H     369  UNL369      0.1146
   1475 H          12.6554   12.4411   11.1009 H     369  UNL369      0.1146
   1476 H          12.4173   10.8814   11.5005 H     369  UNL369      0.1146
   1477 N          11.9298   12.7515   13.4042 N.3   370  UNL370     -0.3437
   1478 H          11.4881   13.0421   14.2753 H     370  UNL370      0.1146
   1479 H          12.6554   13.4411   13.2135 H     370  UNL370      0.1146
   1480 H          12.4173   11.8814   13.6131 H     370  UNL370      0.1146
   1481 N          11.9298   11.7515   15.5169 N.3   371  UNL371     -0.3437
   1482 H          11.4881   12.0421   16.3880 H     371  UNL371      0.1146
   1483 H          12.6554   12.4411   15.3262 H     371  UNL371      0.1146
   1484 H          12.4173   10.8814   15.7258 H     371  UNL371      0.1146
   1485 N          11.9083   12.0022   17.8647 N.3   372  UNL372     -0.3437
   1486 H          12.3895   11.8634   18.7522 H     372  UNL372      0.1146
   1487 H          12.6360   12.1946   17.1778 H     372  UNL372      0.1146
   1488 H          11.5169   11.0958   17.6127 H     372  UNL372      0.1146
   1489 N          14.3038    0.3874   -1.3867 N.3   373  UNL373     -0.3437
   1490 H          14.1704    1.3946   -1.4651 H     373  UNL373      0.1146
   1491 H          14.7477    0.2324   -0.4827 H     373  UNL373      0.1146
   1492 H          13.3703   -0.0147   -1.3138 H     373  UNL373      0.1146
   1493 N          14.0898    0.2455    0.8081 N.3   374  UNL374     -0.3437
   1494 H          14.4694    0.1073    1.7436 H     374  UNL374      0.1146
   1495 H          13.2415    0.7973    0.9278 H     374  UNL374      0.1146
   1496 H          14.7515    0.8496    0.3228 H     374  UNL374      0.1146
   1497 N          14.1618    0.6878    2.8355 N.3   375  UNL375     -0.3437
   1498 H          13.5403    1.0107    3.5757 H     375  UNL375      0.1146
   1499 H          15.0679    0.5355    3.2760 H     375  UNL375      0.1146
   1500 H          13.8221   -0.2343    2.5658 H     375  UNL375      0.1146
   1501 N          13.9552    0.5833    7.0806 N.3   376  UNL376     -0.3437
   1502 H          13.5135    0.4167    7.9837 H     376  UNL376      0.1146
   1503 H          14.6808    1.2792    7.2470 H     376  UNL376      0.1146
   1504 H          14.4427   -0.2794    6.8430 H     376  UNL376      0.1146
   1505 N          13.9088    0.4007   11.3814 N.3   377  UNL377     -0.3437
   1506 H          14.0016    0.0075   12.3169 H     377  UNL377      0.1146
   1507 H          13.9047    1.4126   11.5011 H     377  UNL377      0.1146
   1508 H          14.7770    0.1789   10.8961 H     377  UNL377      0.1146
   1509 N          13.9420    0.3383   13.7637 N.3   378  UNL378     -0.3437
   1510 H          13.5699    0.8623   12.9729 H     378  UNL378      0.1146
   1511 H          14.7041   -0.2272   13.3923 H     378  UNL378      0.1146
   1512 H          14.3761    1.0264   14.3773 H     378  UNL378      0.1146
   1513 N          13.9187    0.3796   15.5967 N.3   379  UNL379     -0.3437
   1514 H          14.0465   -0.0036   16.5322 H     379  UNL379      0.1146
   1515 H          13.8236    1.3871   15.7164 H     379  UNL379      0.1146
   1516 H          14.8033    0.2367   15.1115 H     379  UNL379      0.1146
   1517 N          13.8714    0.4894   18.7483 N.3   380  UNL380     -0.3437
   1518 H          14.0091   -0.1041   19.5650 H     380  UNL380      0.1146
   1519 H          14.1505    1.4274   19.0324 H     380  UNL380      0.1146
   1520 H          14.5611    0.1871   18.0618 H     380  UNL380      0.1146
   1521 N          13.9552    2.7282    0.7283 N.3   381  UNL381     -0.3437
   1522 H          13.5135    3.0188    1.5994 H     381  UNL381      0.1146
   1523 H          14.6808    3.4178    0.5376 H     381  UNL381      0.1146
   1524 H          14.4427    1.8581    0.9372 H     381  UNL381      0.1146
   1525 N          13.9187    2.6354    2.9207 N.3   382  UNL382     -0.3437
   1526 H          14.0465    2.2522    3.8563 H     382  UNL382      0.1146
   1527 H          13.8236    3.6429    3.0405 H     382  UNL382      0.1146
   1528 H          14.8033    2.4925    2.4355 H     382  UNL382      0.1146
   1529 N          13.9385    0.9322    5.2869 N.3   383  UNL383     -0.3437
   1530 H          13.5769    0.0242    4.9984 H     383  UNL383      0.1146
   1531 H          14.6845    0.7386    5.9535 H     383  UNL383      0.1146
   1532 H          14.3922    1.3280    4.4648 H     383  UNL383      0.1146
   1533 N          13.8714    2.7446    7.1844 N.3   384  UNL384     -0.3437
   1534 H          14.0091    2.0800    7.9445 H     384  UNL384      0.1146
   1535 H          14.1505    3.6532    7.5517 H     384  UNL384      0.1146
   1536 H          14.5611    2.5052    6.4736 H     384  UNL384      0.1146
   1537 N          13.9552    0.9737    9.3178 N.3   385  UNL385     -0.3437
   1538 H          13.5135    0.2057    9.8214 H     385  UNL385      0.1146
   1539 H          14.6808    1.3343    9.9358 H     385  UNL385      0.1146
   1540 H          14.4427    0.5493    8.5300 H     385  UNL385      0.1146
   1541 N          13.9187    2.5706   11.5363 N.3   386  UNL386     -0.3437
   1542 H          14.0465    3.1424   12.3700 H     386  UNL386      0.1146
   1543 H          13.8236    3.2235   10.7597 H     386  UNL386      0.1146
   1544 H          14.8033    2.0865   11.3895 H     386  UNL386      0.1146
   1545 N          14.3139    2.9141   13.4689 N.3   387  UNL387     -0.3437
   1546 H          14.6139    2.8777   14.4421 H     387  UNL387      0.1146
   1547 H          14.2744    1.9468   13.1508 H     387  UNL387      0.1146
   1548 H          13.3500    3.2443   13.4843 H     387  UNL387      0.1146
   1549 N          13.9552    2.7768   15.9622 N.3   388  UNL388     -0.3437
   1550 H          13.5135    2.5117   15.0830 H     388  UNL388      0.1146
   1551 H          14.6808    2.0819   16.1327 H     388  UNL388      0.1146
   1552 H          14.4427    3.6526   15.7789 H     388  UNL388      0.1146
   1553 N          13.9678    2.9659   18.7483 N.3   389  UNL389     -0.3437
   1554 H          13.5885    2.4891   19.5650 H     389  UNL389      0.1146
   1555 H          14.8761    3.3303   19.0324 H     389  UNL389      0.1146
   1556 H          14.1597    2.2377   18.0618 H     389  UNL389      0.1146
   1557 N          13.9552    4.9257    0.7437 N.3   390  UNL390     -0.3437
   1558 H          13.5135    5.4382    1.5057 H     390  UNL390      0.1146
   1559 H          14.6808    5.5395    0.3759 H     390  UNL390      0.1146
   1560 H          14.4427    4.1429    1.1771 H     390  UNL390      0.1146
   1561 N          13.8939    4.8912    3.1543 N.3   391  UNL391     -0.3437
   1562 H          14.7061    4.5080    3.6358 H     391  UNL391      0.1146
   1563 H          13.9285    5.8987    3.3032 H     391  UNL391      0.1146
   1564 H          14.0636    4.7484    2.1597 H     391  UNL391      0.1146
   1565 N          13.8998    2.6768    5.0888 N.3   392  UNL392     -0.3437
   1566 H          14.3159    3.2486    4.3552 H     392  UNL392      0.1146
   1567 H          14.6237    2.0206    5.3782 H     392  UNL392      0.1146
   1568 H          13.7528    3.3002    5.8814 H     392  UNL392      0.1146
   1569 N          14.0081    4.9242    7.0446 N.3   393  UNL393     -0.3437
   1570 H          14.7974    4.3250    7.2817 H     393  UNL393      0.1146
   1571 H          13.3738    4.8815    7.8410 H     393  UNL393      0.1146
   1572 H          14.3729    5.8755    7.0270 H     393  UNL393      0.1146
   1573 N          14.2855    2.8735    9.1789 N.3   394  UNL394     -0.3437
   1574 H          14.3170    2.3458   10.0500 H     394  UNL394      0.1146
   1575 H          13.2988    3.0422    8.9882 H     394  UNL394      0.1146
   1576 H          14.6908    3.7848    9.3878 H     394  UNL394      0.1146
   1577 N          13.8939    4.8912   11.6049 N.3   395  UNL395     -0.3437
   1578 H          14.7061    4.5080   12.0864 H     395  UNL395      0.1146
   1579 H          13.9285    5.8987   11.7538 H     395  UNL395      0.1146
   1580 H          14.0636    4.7484   10.6104 H     395  UNL395      0.1146
   1581 N          14.2621    5.1901   13.8269 N.3   396  UNL396     -0.3437
   1582 H          14.8990    4.4671   13.4951 H     396  UNL396      0.1146
   1583 H          13.9463    5.6889   12.9963 H     396  UNL396      0.1146
   1584 H          13.4447    4.7002   14.1879 H     396  UNL396      0.1146
   1585 N          13.9187    4.8912   15.5967 N.3   397  UNL397     -0.3437
   1586 H          14.0465    4.5080   16.5322 H     397  UNL397      0.1146
   1587 H          13.8236    5.8987   15.7164 H     397  UNL397      0.1146
   1588 H          14.8033    4.7484   15.1115 H     397  UNL397      0.1146
   1589 N          13.8714    5.0011   18.7483 N.3   398  UNL398     -0.3437
   1590 H          14.0091    4.4075   19.5650 H     398  UNL398      0.1146
   1591 H          14.1505    5.9390   19.0324 H     398  UNL398      0.1146
   1592 H          14.5611    4.6987   18.0618 H     398  UNL398      0.1146
   1593 N          13.9346    7.4453    1.0704 N.3   399  UNL399     -0.3437
   1594 H          14.7707    7.3586    1.6464 H     399  UNL399      0.1146
   1595 H          14.2540    7.7696    0.1587 H     399  UNL399      0.1146
   1596 H          13.5928    6.4961    0.9269 H     399  UNL399      0.1146
   1597 N          14.0597    7.0992    2.8409 N.3   400  UNL400     -0.3437
   1598 H          13.5575    6.9339    3.7120 H     400  UNL400      0.1146
   1599 H          13.9706    8.0963    2.6502 H     400  UNL400      0.1146
   1600 H          15.0443    6.9402    3.0498 H     400  UNL400      0.1146
   1601 N          13.8785    7.3867    5.1539 N.3   401  UNL401     -0.3437
   1602 H          14.4473    7.5425    4.3230 H     401  UNL401      0.1146
   1603 H          13.8527    6.3773    5.2914 H     401  UNL401      0.1146
   1604 H          14.4136    7.7629    5.9353 H     401  UNL401      0.1146
   1605 N          13.8949    7.2569    7.4409 N.3   402  UNL402     -0.3437
   1606 H          14.6203    6.6633    7.8407 H     402  UNL402      0.1146
   1607 H          14.2910    8.1948    7.3989 H     402  UNL402      0.1146
   1608 H          13.7860    6.9545    6.4739 H     402  UNL402      0.1146
   1609 N          13.9552    5.5753    9.3178 N.3   403  UNL403     -0.3437
   1610 H          13.5135    4.8074    9.8214 H     403  UNL403      0.1146
   1611 H          14.6808    5.9359    9.9358 H     403  UNL403      0.1146
   1612 H          14.4427    5.1510    8.5300 H     403  UNL403      0.1146
   1613 N          13.9545    7.2535   11.7369 N.3   404  UNL404     -0.3437
   1614 H          13.5674    6.9137   10.8577 H     404  UNL404      0.1146
   1615 H          14.7928    6.6998   11.9074 H     404  UNL404      0.1146
   1616 H          14.2774    8.2025   11.5535 H     404  UNL404      0.1146
   1617 N          13.9552    7.2399   13.4042 N.3   405  UNL405     -0.3437
   1618 H          13.5135    7.5305   14.2753 H     405  UNL405      0.1146
   1619 H          14.6808    7.9295   13.2135 H     405  UNL405      0.1146
   1620 H          14.4427    6.3698   13.6131 H     405  UNL405      0.1146
   1621 N          14.3038    7.3734   15.5114 N.3   406  UNL406     -0.3437
   1622 H          14.1704    8.0609   16.2516 H     406  UNL406      0.1146
   1623 H          14.7477    6.5689   15.9520 H     406  UNL406      0.1146
   1624 H          13.3703    7.0663   15.2418 H     406  UNL406      0.1146
   1625 N          14.2949    7.2669   19.2454 N.3   407  UNL407     -0.3437
   1626 H          15.0535    6.6733   18.9129 H     407  UNL407      0.1146
   1627 H          14.5025    8.2048   18.9055 H     407  UNL407      0.1146
   1628 H          13.4612    6.9645   18.7436 H     407  UNL407      0.1146
   1629 N          13.9759    9.4957    0.7118 N.3   408  UNL408     -0.3437
   1630 H          13.4577    9.7863    1.5397 H     408  UNL408      0.1146
   1631 H          14.7158   10.1853    0.5871 H     408  UNL408      0.1146
   1632 H          14.4427    8.6256    0.9637 H     408  UNL408      0.1146
   1633 N          13.9552    9.3012    3.0530 N.3   409  UNL409     -0.3437
   1634 H          13.5135   10.2177    2.9947 H     409  UNL409      0.1146
   1635 H          14.6808    9.2931    2.3376 H     409  UNL409      0.1146
   1636 H          14.4427    9.2808    3.9476 H     409  UNL409      0.1146
   1637 N          14.0753    9.7638    5.3357 N.3   410  UNL410     -0.3437
   1638 H          15.0376    9.7531    5.0005 H     410  UNL410      0.1146
   1639 H          13.4883    9.6768    4.5073 H     410  UNL410      0.1146
   1640 H          13.9509    8.8990    5.8601 H     410  UNL410      0.1146
   1641 N          14.0998    9.2688    7.1461 N.3   411  UNL411     -0.3437
   1642 H          14.4794    9.1306    8.0816 H     411  UNL411      0.1146
   1643 H          13.2515    9.8205    7.2658 H     411  UNL411      0.1146
   1644 H          14.7615    9.8729    6.6608 H     411  UNL411      0.1146
   1645 N          13.9552    7.7178    9.5122 N.3   412  UNL412     -0.3437
   1646 H          13.5135    6.8460    9.2237 H     412  UNL412      0.1146
   1647 H          14.6808    7.4579   10.1788 H     412  UNL412      0.1146
   1648 H          14.4427    8.0711    8.6901 H     412  UNL412      0.1146
   1649 N          14.1254    9.3827   11.6543 N.3   413  UNL413     -0.3437
   1650 H          14.2148   10.1956   12.2623 H     413  UNL413      0.1146
   1651 H          13.1492    9.3558   11.3630 H     413  UNL413      0.1146
   1652 H          14.6628    9.5987   10.8159 H     413  UNL413      0.1146
   1653 N          14.0316    9.7111   13.8284 N.3   414  UNL414     -0.3437
   1654 H          14.9029   10.0339   13.4101 H     414  UNL414      0.1146
   1655 H          13.3876    9.5588   13.0536 H     414  UNL414      0.1146
   1656 H          14.2300    8.7890   14.2141 H     414  UNL414      0.1146
   1657 N          13.9187    9.3368   15.7449 N.3   415  UNL415     -0.3437
   1658 H          14.0465    9.8314   16.6266 H     415  UNL415      0.1146
   1659 H          13.8236   10.0568   15.0301 H     415  UNL415      0.1146
   1660 H          14.8033    8.8679   15.5552 H     415  UNL415      0.1146
   1661 N          12.2855    9.3852   17.6295 N.3   416  UNL416     -0.3437
   1662 H          12.3170    8.8574   18.5006 H     416  UNL416      0.1146
   1663 H          11.2988    9.5538   17.4388 H     416  UNL416      0.1146
   1664 H          12.6908   10.2965   17.8384 H     416  UNL416      0.1146
   1665 N          13.9552   12.9736    1.0616 N.3   417  UNL417     -0.3437
   1666 H          13.5135   12.1018    0.7731 H     417  UNL417      0.1146
   1667 H          14.6808   12.7137    1.7282 H     417  UNL417      0.1146
   1668 H          14.4427   13.3270    0.2395 H     417  UNL417      0.1146
   1669 N          13.9552   11.7515    2.8409 N.3   418  UNL418     -0.3437
   1670 H          13.5135   12.0421    3.7120 H     418  UNL418      0.1146
   1671 H          14.6808   12.4411    2.6502 H     418  UNL418      0.1146
   1672 H          14.4427   10.8814    3.0498 H     418  UNL418      0.1146
   1673 N          14.0853   12.7515    5.4635 N.3   419  UNL419     -0.3437
   1674 H          15.0476   13.0421    5.2960 H     419  UNL419      0.1146
   1675 H          13.4983   13.4411    4.9963 H     419  UNL419      0.1146
   1676 H          13.9609   11.8814    4.9479 H     419  UNL419      0.1146
   1677 N          13.9552   11.7515    7.0662 N.3   420  UNL420     -0.3437
   1678 H          13.5135   12.0421    7.9373 H     420  UNL420      0.1146
   1679 H          14.6808   12.4411    6.8755 H     420  UNL420      0.1146
   1680 H          14.4427   10.8814    7.2751 H     420  UNL420      0.1146
   1681 N          13.9452   11.9461    9.2415 N.3   421  UNL421     -0.3437
   1682 H          13.5035   11.4444   10.0106 H     421  UNL421      0.1146
   1683 H          14.6708   12.5241    9.6631 H     421  UNL421      0.1146
   1684 H          14.4327   11.2416    8.6897 H     421  UNL421      0.1146
   1685 N          13.9859   12.4493   11.6051 N.3   422  UNL422     -0.3437
   1686 H          14.4873   12.9047   12.3664 H     422  UNL422      0.1146
   1687 H          13.4254   13.1765   11.1632 H     422  UNL422      0.1146
   1688 H          14.6936   12.1855   10.9209 H     422  UNL422      0.1146
   1689 N          13.9761   11.7716   13.3862 N.3   423  UNL423     -0.3437
   1690 H          13.4559   11.9827   14.2366 H     423  UNL423      0.1146
   1691 H          14.7103   12.4755   13.3240 H     423  UNL423      0.1146
   1692 H          14.4499   10.8862   13.5594 H     423  UNL423      0.1146
   1693 N          13.8566   12.7316   15.7542 N.3   424  UNL424     -0.3437
   1694 H          14.2412   13.0993   16.6232 H     424  UNL424      0.1146
   1695 H          14.1104   13.4013   15.0292 H     424  UNL424      0.1146
   1696 H          14.3839   11.8838   15.5502 H     424  UNL424      0.1146
   1697 N          13.9552   11.7515   17.6295 N.3   425  UNL425     -0.3437
   1698 H          13.5135   12.0421   18.5006 H     425  UNL425      0.1146
   1699 H          14.6808   12.4411   17.4388 H     425  UNL425      0.1146
   1700 H          14.4427   10.8814   17.8384 H     425  UNL425      0.1146
   1701 N          16.2690    0.6784    1.1612 N.3   426  UNL426     -0.3437
   1702 H          16.9331   -0.0446    0.8881 H     426  UNL426      0.1146
   1703 H          16.0291    1.1772    0.3056 H     426  UNL426      0.1146
   1704 H          15.4225    0.1886    1.4474 H     426  UNL426      0.1146
   1705 N          15.9805    0.3383    5.3310 N.3   427  UNL427     -0.3437
   1706 H          15.5388    0.8623    4.5769 H     427  UNL427      0.1146
   1707 H          16.7061   -0.2272    4.8927 H     427  UNL427      0.1146
   1708 H          16.4680    1.0264    5.9031 H     427  UNL427      0.1146
   1709 N          15.9441    0.3796    7.1461 N.3   428  UNL428     -0.3437
   1710 H          16.0718   -0.0036    8.0816 H     428  UNL428      0.1146
   1711 H          15.8490    1.3871    7.2658 H     428  UNL428      0.1146
   1712 H          16.8287    0.2367    6.6608 H     428  UNL428      0.1146
   1713 N          15.9668    0.3563    9.5563 N.3   429  UNL429     -0.3437
   1714 H          15.5740    0.9178    8.8022 H     429  UNL429      0.1146
   1715 H          16.6386   -0.2721    9.1180 H     429  UNL429      0.1146
   1716 H          16.5142    0.9977   10.1284 H     429  UNL429      0.1146
   1717 N          15.9805    0.6570   11.3541 N.3   430  UNL430     -0.3437
   1718 H          15.5388    0.1553   12.1232 H     430  UNL430      0.1146
   1719 H          16.7061    1.2350   11.7758 H     430  UNL430      0.1146
   1720 H          16.4680   -0.0475   10.8024 H     430  UNL430      0.1146
   1721 N          16.2547    0.6878   13.8397 N.3   431  UNL431     -0.3437
   1722 H          16.5159    1.0107   12.9092 H     431  UNL431      0.1146
   1723 H          15.2476    0.5355   13.8118 H     431  UNL431      0.1146
   1724 H          16.6754   -0.2343   13.9455 H     431  UNL431      0.1146
   1725 N          15.9838    0.4552   15.5169 N.3   432  UNL432     -0.3437
   1726 H          15.5178    0.7049   16.3880 H     432  UNL432      0.1146
   1727 H          16.6445    1.2072   15.3262 H     432  UNL432      0.1146
   1728 H          16.5475   -0.3676   15.7258 H     432  UNL432      0.1146
   1729 N          15.8968    0.4894   18.7483 N.3   433  UNL433     -0.3437
   1730 H          16.0345   -0.1041   19.5650 H     433  UNL433      0.1146
   1731 H          16.1759    1.4274   19.0324 H     433  UNL433      0.1146
   1732 H          16.5865    0.1871   18.0618 H     433  UNL433      0.1146
   1733 N          15.9805    2.7768    1.1736 N.3   434  UNL434     -0.3437
   1734 H          15.5388    2.5117    0.2944 H     434  UNL434      0.1146
   1735 H          16.7061    2.0819    1.3441 H     434  UNL434      0.1146
   1736 H          16.4680    3.6526    0.9902 H     434  UNL434      0.1146
   1737 N          16.4133    2.7515    2.8954 N.3   435  UNL435     -0.3437
   1738 H          15.8221    3.5643    2.7274 H     435  UNL435      0.1146
   1739 H          16.5821    2.7299    3.9001 H     435  UNL435      0.1146
   1740 H          15.8362    1.9372    2.6900 H     435  UNL435      0.1146
   1741 N          16.0270    2.6678    4.9188 N.3   436  UNL436     -0.3437
   1742 H          16.7593    2.0241    5.2150 H     436  UNL436      0.1146
   1743 H          15.3914    2.7538    5.7107 H     436  UNL436      0.1146
   1744 H          16.4759    3.5772    4.8191 H     436  UNL436      0.1146
   1745 N          15.9805    2.5645    7.1719 N.3   437  UNL437     -0.3437
   1746 H          15.5388    3.4275    7.4858 H     437  UNL437      0.1146
   1747 H          16.7061    2.8438    6.5132 H     437  UNL437      0.1146
   1748 H          16.4680    2.1873    7.9834 H     437  UNL437      0.1146
   1749 N          15.9178    2.6075    9.3933 N.3   438  UNL438     -0.3437
   1750 H          15.9203    3.3513   10.0897 H     438  UNL438      0.1146
   1751 H          16.1425    3.0535    8.5051 H     438  UNL438      0.1146
   1752 H          16.7130    2.0107    9.6168 H     438  UNL438      0.1146
   1753 N          15.9805    2.5428   11.4444 N.3   439  UNL439     -0.3437
   1754 H          15.5388    3.4548   11.5511 H     439  UNL439      0.1146
   1755 H          16.7061    2.6628   10.7391 H     439  UNL439      0.1146
   1756 H          16.4680    2.3625   12.3209 H     439  UNL439      0.1146
   1757 N          15.9084    2.7400   13.4778 N.3   440  UNL440     -0.3437
   1758 H          15.7895    3.0878   14.4282 H     440  UNL440      0.1146
   1759 H          16.5855    3.3594   13.0347 H     440  UNL440      0.1146
   1760 H          16.3702    1.8358   13.5654 H     440  UNL440      0.1146
   1761 N          16.1251    2.5013   15.5967 N.3   441  UNL441     -0.3437
   1762 H          16.5047    2.3632   16.5322 H     441  UNL441      0.1146
   1763 H          15.2768    3.0531   15.7164 H     441  UNL441      0.1146
   1764 H          16.7869    3.1054   15.1115 H     441  UNL441      0.1146
   1765 N          15.9932    2.9659   18.7483 N.3   442  UNL442     -0.3437
   1766 H          15.6138    2.4891   19.5650 H     442  UNL442      0.1146
   1767 H          16.9014    3.3303   19.0324 H     442  UNL442      0.1146
   1768 H          16.1851    2.2377   18.0618 H     442  UNL442      0.1146
   1769 N          15.8968    5.0011    0.8470 N.3   443  UNL443     -0.3437
   1770 H          16.0345    4.4075    1.6637 H     443  UNL443      0.1146
   1771 H          16.1759    5.9390    1.1311 H     443  UNL443      0.1146
   1772 H          16.5865    4.6987    0.1605 H     443  UNL443      0.1146
   1773 N          15.9805    4.8499    3.2183 N.3   444  UNL444     -0.3437
   1774 H          15.5388    5.3739    2.4642 H     444  UNL444      0.1146
   1775 H          16.7061    4.2844    2.7800 H     444  UNL444      0.1146
   1776 H          16.4680    5.5380    3.7904 H     444  UNL444      0.1146
   1777 N          16.1025    4.7558    5.3060 N.3   445  UNL445     -0.3437
   1778 H          16.4681    5.4437    5.9628 H     445  UNL445      0.1146
   1779 H          15.3072    5.1992    4.8485 H     445  UNL445      0.1146
   1780 H          16.8159    4.6476    4.5864 H     445  UNL445      0.1146
   1781 N          16.0187    4.9148    7.5211 N.3   446  UNL446     -0.3437
   1782 H          16.7006    5.6294    7.7713 H     446  UNL446      0.1146
   1783 H          15.4294    5.3290    6.8002 H     446  UNL446      0.1146
   1784 H          16.5449    4.1730    7.0616 H     446  UNL446      0.1146
   1785 N          16.3131    5.2197    9.2446 N.3   447  UNL447     -0.3437
   1786 H          15.2997    5.2692    9.1503 H     447  UNL447      0.1146
   1787 H          16.5056    5.2824   10.2433 H     447  UNL447      0.1146
   1788 H          16.5752    4.2750    8.9668 H     447  UNL447      0.1146
   1789 N          15.9805    4.9840   11.2916 N.3   448  UNL448     -0.3437
   1790 H          15.5388    5.2746   12.1627 H     448  UNL448      0.1146
   1791 H          16.7061    5.6736   11.1009 H     448  UNL448      0.1146
   1792 H          16.4680    4.1139   11.5005 H     448  UNL448      0.1146
   1793 N          15.9146    4.8986   13.5037 N.3   449  UNL449     -0.3437
   1794 H          16.4820    4.2012   13.9833 H     449  UNL449      0.1146
   1795 H          15.7391    5.6352   14.1856 H     449  UNL449      0.1146
   1796 H          16.5178    5.3113   12.7936 H     449  UNL449      0.1146
   1797 N          15.9616    4.9290   15.5502 N.3   450  UNL450     -0.3437
   1798 H          15.5974    5.4479   16.3479 H     450  UNL450      0.1146
   1799 H          16.6617    5.5313   15.1193 H     450  UNL450      0.1146
   1800 H          16.4729    4.1381   15.9394 H     450  UNL450      0.1146
   1801 N          15.8968    5.0011   18.7483 N.3   451  UNL451     -0.3437
   1802 H          16.0345    4.4075   19.5650 H     451  UNL451      0.1146
   1803 H          16.1759    5.9390   19.0324 H     451  UNL451      0.1146
   1804 H          16.5865    4.6987   18.0618 H     451  UNL451      0.1146
   1805 N          16.0348    7.1062    1.1560 N.3   452  UNL452     -0.3437
   1806 H          15.3956    7.5030    0.4687 H     452  UNL452      0.1146
   1807 H          16.7174    6.5664    0.6258 H     452  UNL452      0.1146
   1808 H          16.5459    7.8939    1.5518 H     452  UNL452      0.1146
   1809 N          16.1871    7.4553    2.8355 N.3   453  UNL453     -0.3437
   1810 H          15.5657    7.7781    3.5757 H     453  UNL453      0.1146
   1811 H          17.0933    7.3029    3.2760 H     453  UNL453      0.1146
   1812 H          15.8475    6.5332    2.5658 H     453  UNL453      0.1146
   1813 N          16.1776    7.4553    4.9503 N.3   454  UNL454     -0.3437
   1814 H          15.4921    7.7781    5.6317 H     454  UNL454      0.1146
   1815 H          17.0404    7.3029    5.4705 H     454  UNL454      0.1146
   1816 H          15.8635    6.5332    4.6512 H     454  UNL454      0.1146
   1817 N          16.1251    7.4763    7.4920 N.3   455  UNL455     -0.3437
   1818 H          16.5047    7.8517    6.6241 H     455  UNL455      0.1146
   1819 H          15.2768    6.9743    7.2337 H     455  UNL455      0.1146
   1820 H          16.7869    6.7672    7.8045 H     455  UNL455      0.1146
   1821 N          15.9638    7.3300    9.6001 N.3   456  UNL456     -0.3437
   1822 H          15.5958    7.2422    8.6539 H     456  UNL456      0.1146
   1823 H          16.4446    6.4534    9.7969 H     456  UNL456      0.1146
   1824 H          16.6894    8.0440    9.5540 H     456  UNL456      0.1146
   1825 N          15.9366    7.3722   11.3714 N.3   457  UNL457     -0.3437
   1826 H          15.7158    7.0339   12.3069 H     457  UNL457      0.1146
   1827 H          16.6667    8.0729   11.4911 H     457  UNL457      0.1146
   1828 H          16.3745    6.5905   10.8861 H     457  UNL457      0.1146
   1829 N          16.0299    7.5305   13.5539 N.3   458  UNL458     -0.3437
   1830 H          15.3253    6.7956   13.5967 H     458  UNL458      0.1146
   1831 H          16.4858    7.5359   14.4653 H     458  UNL458      0.1146
   1832 H          16.7326    7.2076   12.8904 H     458  UNL458      0.1146
   1833 N          15.9805    7.1057   15.8943 N.3   459  UNL459     -0.3437
   1834 H          15.5388    7.6297   15.1402 H     459  UNL459      0.1146
   1835 H          16.7061    6.5403   15.4560 H     459  UNL459      0.1146
   1836 H          16.4680    7.7938   16.4664 H     459  UNL459      0.1146
   1837 N          16.6728    7.3044   19.0688 N.3   460  UNL460     -0.3437
   1838 H          16.8839    6.5770   18.3871 H     460  UNL460      0.1146
   1839 H          16.5355    8.1602   18.5330 H     460  UNL460      0.1146
   1840 H          15.7614    7.0680   19.4586 H     460  UNL460      0.1146
   1841 N          15.8968    9.5127    0.8470 N.3   461  UNL461     -0.3437
   1842 H          16.0345    8.9191    1.6637 H     461  UNL461      0.1146
   1843 H          16.1759   10.4506    1.1311 H     461  UNL461      0.1146
   1844 H          16.5865    9.2103    0.1605 H     461  UNL461      0.1146
   1845 N          16.2447    9.7111    3.2764 N.3   462  UNL462     -0.3437
   1846 H          16.5059   10.0339    2.3459 H     462  UNL462      0.1146
   1847 H          15.2376    9.5588    3.2485 H     462  UNL462      0.1146
   1848 H          16.6654    8.7890    3.3822 H     462  UNL462      0.1146
   1849 N          16.2554    9.7720    5.0454 N.3   463  UNL463     -0.3437
   1850 H          15.5650    9.9419    5.7754 H     463  UNL463      0.1146
   1851 H          17.0136    9.2567    5.4903 H     463  UNL463      0.1146
   1852 H          15.8196    9.1223    4.3925 H     463  UNL463      0.1146
   1853 N          15.9613    9.4957    7.0845 N.3   464  UNL464     -0.3437
   1854 H          15.5997    9.7863    7.9917 H     464  UNL464      0.1146
   1855 H          16.6669   10.1853    6.8293 H     464  UNL464      0.1146
   1856 H          16.4656    8.6256    7.2487 H     464  UNL464      0.1146
   1857 N          14.3109    9.3852    9.1789 N.3   465  UNL465     -0.3437
   1858 H          14.3424    8.8574   10.0500 H     465  UNL465      0.1146
   1859 H          13.3241    9.5538    8.9882 H     465  UNL465      0.1146
   1860 H          14.7162   10.2965    9.3878 H     465  UNL465      0.1146
   1861 N          16.0297    9.3525   11.3100 N.3   466  UNL466     -0.3437
   1862 H          15.4441   10.0936   11.6925 H     466  UNL466      0.1146
   1863 H          16.8396    9.8170   10.9017 H     466  UNL466      0.1146
   1864 H          16.3802    8.8297   12.1113 H     466  UNL466      0.1146
   1865 N          16.3765    9.4255   13.8216 N.3   467  UNL467     -0.3437
   1866 H          16.7355    9.6963   12.9072 H     467  UNL467      0.1146
   1867 H          15.8588   10.2311   14.1700 H     467  UNL467      0.1146
   1868 H          15.6827    8.6999   13.6473 H     467  UNL467      0.1146
   1869 N          15.9805    9.3616   15.8943 N.3   468  UNL468     -0.3437
   1870 H          15.5388    9.8855   15.1402 H     468  UNL468      0.1146
   1871 H          16.7061    8.7961   15.4560 H     468  UNL468      0.1146
   1872 H          16.4680   10.0496   16.4664 H     468  UNL468      0.1146
   1873 N          13.8805    7.5157   17.6295 N.3   469  UNL469     -0.3437
   1874 H          13.4388    7.8063   18.5006 H     469  UNL469      0.1146
   1875 H          14.6061    8.2053   17.4388 H     469  UNL469      0.1146
   1876 H          14.3680    6.6456   17.8384 H     469  UNL469      0.1146
   1877 N          15.9805   12.9869    0.8672 N.3   470  UNL470     -0.3437
   1878 H          15.5388   12.2190    1.3707 H     470  UNL470      0.1146
   1879 H          16.7061   13.3475    1.4851 H     470  UNL470      0.1146
   1880 H          16.4680   12.5626    0.0793 H     470  UNL470      0.1146
   1881 N          15.9805   11.7515    2.8409 N.3   471  UNL471     -0.3437
   1882 H          15.5388   12.0421    3.7120 H     471  UNL471      0.1146
   1883 H          16.7061   12.4411    2.6502 H     471  UNL471      0.1146
   1884 H          16.4680   10.8814    3.0498 H     471  UNL471      0.1146
   1885 N          15.9838   11.7343    4.9536 N.3   472  UNL472     -0.3437
   1886 H          15.5178   11.9840    5.8247 H     472  UNL472      0.1146
   1887 H          16.6445   12.4863    4.7629 H     472  UNL472      0.1146
   1888 H          16.5475   10.9115    5.1625 H     472  UNL472      0.1146
   1889 N          16.3778   13.0004    7.3026 N.3   473  UNL473     -0.3437
   1890 H          15.8179   13.0582    6.4532 H     473  UNL473      0.1146
   1891 H          15.7139   12.9731    8.0752 H     473  UNL473      0.1146
   1892 H          16.8239   12.0845    7.2832 H     473  UNL473      0.1146
   1893 N          15.9805   11.7515    9.1789 N.3   474  UNL474     -0.3437
   1894 H          15.5388   12.0421   10.0500 H     474  UNL474      0.1146
   1895 H          16.7061   12.4411    8.9882 H     474  UNL474      0.1146
   1896 H          16.4680   10.8814    9.3878 H     474  UNL474      0.1146
   1897 N          16.1107   12.7515   11.8014 N.3   475  UNL475     -0.3437
   1898 H          17.0729   13.0421   11.6340 H     475  UNL475      0.1146
   1899 H          15.5237   13.4411   11.3343 H     475  UNL475      0.1146
   1900 H          15.9863   11.8814   11.2859 H     475  UNL475      0.1146
   1901 N          15.9805   11.7716   13.4026 N.3   476  UNL476     -0.3437
   1902 H          15.5388   11.9827   14.2963 H     476  UNL476      0.1146
   1903 H          16.7061   12.4755   13.2747 H     476  UNL476      0.1146
   1904 H          16.4680   10.8862   13.5325 H     476  UNL476      0.1146
   1905 N          16.1107   12.7515   16.0268 N.3   477  UNL477     -0.3437
   1906 H          17.0729   13.0421   15.8593 H     477  UNL477      0.1146
   1907 H          15.5237   13.4411   15.5596 H     477  UNL477      0.1146
   1908 H          15.9863   11.8814   15.5112 H     477  UNL477      0.1146
   1909 N          15.9805   11.7515   17.6295 N.3   478  UNL478     -0.3437
   1910 H          15.5388   12.0421   18.5006 H     478  UNL478      0.1146
   1911 H          16.7061   12.4411   17.4388 H     478  UNL478      0.1146
   1912 H          16.4680   10.8814   17.8384 H     478  UNL478      0.1146
   1913 N          17.9525    0.6275    0.8482 N.3   479  UNL479     -0.3437
   1914 H          17.8721    0.3414    1.8229 H     479  UNL479      0.1146
   1915 H          18.7637    1.2426    0.8020 H     479  UNL479      0.1146
   1916 H          18.2067   -0.2118    0.3292 H     479  UNL479      0.1146
   1917 N          18.2698    0.4360    3.3430 N.3   480  UNL480     -0.3437
   1918 H          18.6932    1.3038    3.0174 H     480  UNL480      0.1146
   1919 H          17.2659    0.5447    3.2062 H     480  UNL480      0.1146
   1920 H          18.5662   -0.2847    2.6864 H     480  UNL480      0.1146
   1921 N          18.0823    0.6878    5.3721 N.3   481  UNL481     -0.3437
   1922 H          18.9736    1.0107    4.9983 H     481  UNL481      0.1146
   1923 H          17.4782    0.5355    4.5658 H     481  UNL481      0.1146
   1924 H          18.2610   -0.2343    5.7674 H     481  UNL481      0.1146
   1925 N          18.0059    0.4724    7.0662 N.3   482  UNL482     -0.3437
   1926 H          17.5642    0.7630    7.9373 H     482  UNL482      0.1146
   1927 H          18.7315    1.1620    6.8755 H     482  UNL482      0.1146
   1928 H          18.4934   -0.3977    7.2751 H     482  UNL482      0.1146
   1929 N          18.2431    0.2813    9.2073 N.3   483  UNL483     -0.3437
   1930 H          17.2986    0.2832    9.5898 H     483  UNL483      0.1146
   1931 H          18.3827    1.2044    8.7991 H     483  UNL483      0.1146
   1932 H          18.8706    0.2308   10.0087 H     483  UNL483      0.1146
   1933 N          18.0059    0.3383   11.6690 N.3   484  UNL484     -0.3437
   1934 H          17.5642    0.8623   10.9149 H     484  UNL484      0.1146
   1935 H          18.7315   -0.2272   11.2306 H     484  UNL484      0.1146
   1936 H          18.4934    1.0264   12.2411 H     484  UNL484      0.1146
   1937 N          17.9867    0.3929   13.8139 N.3   485  UNL485     -0.3437
   1938 H          18.5461    1.1404   14.2222 H     485  UNL485      0.1146
   1939 H          17.5727    0.7819   12.9680 H     485  UNL485      0.1146
   1940 H          18.6495   -0.3155   13.5021 H     485  UNL485      0.1146
   1941 N          18.2598    0.2379   15.8696 N.3   486  UNL486     -0.3437
   1942 H          18.4933    1.0216   16.4776 H     486  UNL486      0.1146
   1943 H          17.2947    0.3862   15.5783 H     486  UNL486      0.1146
   1944 H          18.8272    0.3541   15.0312 H     486  UNL486      0.1146
   1945 N          17.9221    0.4894   18.7483 N.3   487  UNL487     -0.3437
   1946 H          18.0598   -0.1041   19.5650 H     487  UNL487      0.1146
   1947 H          18.2012    1.4274   19.0324 H     487  UNL487      0.1146
   1948 H          18.6119    0.1871   18.0618 H     487  UNL487      0.1146
   1949 N          18.2125    2.9436    0.7228 N.3   488  UNL488     -0.3437
   1950 H          17.5910    3.2665    1.4630 H     488  UNL488      0.1146
   1951 H          19.1187    2.7913    1.1634 H     488  UNL488      0.1146
   1952 H          17.8728    2.0216    0.4531 H     488  UNL488      0.1146
   1953 N          18.0433    2.6929    3.2318 N.3   489  UNL489     -0.3437
   1954 H          17.2571    2.0671    3.4013 H     489  UNL489      0.1146
   1955 H          18.2451    2.6268    2.2352 H     489  UNL489      0.1146
   1956 H          17.6895    3.6362    3.3847 H     489  UNL489      0.1146
   1957 N          18.0059    2.5645    5.0593 N.3   490  UNL490     -0.3437
   1958 H          17.5642    3.4275    5.3731 H     490  UNL490      0.1146
   1959 H          18.7315    2.8438    4.4005 H     490  UNL490      0.1146
   1960 H          18.4934    2.1873    5.8707 H     490  UNL490      0.1146
   1961 N          18.2431    2.5371    7.0947 N.3   491  UNL491     -0.3437
   1962 H          17.2986    2.5391    7.4772 H     491  UNL491      0.1146
   1963 H          18.3827    3.4602    6.6864 H     491  UNL491      0.1146
   1964 H          18.8706    2.4866    7.8960 H     491  UNL491      0.1146
   1965 N          18.2801    2.9436    9.6144 N.3   492  UNL492     -0.3437
   1966 H          18.5413    3.2665    8.6839 H     492  UNL492      0.1146
   1967 H          17.2729    2.7913    9.5865 H     492  UNL492      0.1146
   1968 H          18.7007    2.0216    9.7201 H     492  UNL492      0.1146
   1969 N          18.2801    2.9436   11.7271 N.3   493  UNL493     -0.3437
   1970 H          18.5413    3.2665   10.7965 H     493  UNL493      0.1146
   1971 H          17.2729    2.7913   11.6991 H     493  UNL493      0.1146
   1972 H          18.7007    2.0216   11.8328 H     493  UNL493      0.1146
   1973 N          18.3581    2.6301   13.8337 N.3   494  UNL494     -0.3437
   1974 H          17.9776    3.5286   14.1275 H     494  UNL494      0.1146
   1975 H          17.5563    2.0555   13.5782 H     494  UNL494      0.1146
   1976 H          18.8630    2.8089   12.9668 H     494  UNL494      0.1146
   1977 N          18.0059    2.7282   15.5169 N.3   495  UNL495     -0.3437
   1978 H          17.5642    3.0188   16.3880 H     495  UNL495      0.1146
   1979 H          18.7315    3.4178   15.3262 H     495  UNL495      0.1146
   1980 H          18.4934    1.8581   15.7258 H     495  UNL495      0.1146
   1981 N          18.0186    2.9659   18.7483 N.3   496  UNL496     -0.3437
   1982 H          17.6392    2.4891   19.5650 H     496  UNL496      0.1146
   1983 H          18.9268    3.3303   19.0324 H     496  UNL496      0.1146
   1984 H          18.2105    2.2377   18.0618 H     496  UNL496      0.1146
   1985 N          18.2125    5.1995    0.7228 N.3   497  UNL497     -0.3437
   1986 H          17.5910    5.5223    1.4630 H     497  UNL497      0.1146
   1987 H          19.1187    5.0471    1.1634 H     497  UNL497      0.1146
   1988 H          17.8728    4.2774    0.4531 H     497  UNL497      0.1146
   1989 N          18.2801    5.1995    3.2764 N.3   498  UNL498     -0.3437
   1990 H          18.5413    5.5223    2.3459 H     498  UNL498      0.1146
   1991 H          17.2729    5.0471    3.2485 H     498  UNL498      0.1146
   1992 H          18.7007    4.2774    3.3822 H     498  UNL498      0.1146
   1993 N          18.0059    4.9840    4.9536 N.3   499  UNL499     -0.3437
   1994 H          17.5642    5.2746    5.8247 H     499  UNL499      0.1146
   1995 H          18.7315    5.6736    4.7629 H     499  UNL499      0.1146
   1996 H          18.4934    4.1139    5.1625 H     499  UNL499      0.1146
   1997 N          18.3092    4.7465    7.3587 N.3   500  UNL500     -0.3437
   1998 H          17.2904    4.7574    7.3435 H     500  UNL500      0.1146
   1999 H          18.6072    5.0669    6.4384 H     500  UNL500      0.1146
   2000 H          18.5882    5.4755    8.0137 H     500  UNL500      0.1146
   2001 N          18.0059    5.0041    9.1773 N.3   501  UNL501     -0.3437
   2002 H          17.5642    5.2153   10.0710 H     501  UNL501      0.1146
   2003 H          18.7315    5.7081    9.0494 H     501  UNL501      0.1146
   2004 H          18.4934    4.1188    9.3072 H     501  UNL501      0.1146
   2005 N          18.0059    4.9447   11.3001 N.3   502  UNL502     -0.3437
   2006 H          17.5642    5.3865   12.1051 H     502  UNL502      0.1146
   2007 H          18.7315    5.5890   10.9890 H     502  UNL502      0.1146
   2008 H          18.4934    4.1260   11.6614 H     502  UNL502      0.1146
   2009 N          17.9047    4.9830   13.6369 N.3   503  UNL503     -0.3437
   2010 H          18.3125    5.1927   14.5469 H     503  UNL503      0.1146
   2011 H          18.2064    5.7315   13.0147 H     503  UNL503      0.1146
   2012 H          18.3714    4.1391   13.3077 H     503  UNL503      0.1146
   2013 N          18.2004    4.8499   15.9867 N.3   504  UNL504     -0.3437
   2014 H          17.3351    5.3739   15.8639 H     504  UNL504      0.1146
   2015 H          18.3080    4.2844   15.1458 H     504  UNL504      0.1146
   2016 H          18.9515    5.5380   15.9604 H     504  UNL504      0.1146
   2017 N          18.0350    4.7883   18.7483 N.3   505  UNL505     -0.3437
   2018 H          18.5856    4.5272   19.5650 H     505  UNL505      0.1146
   2019 H          17.4738    5.5900   19.0324 H     505  UNL505      0.1146
   2020 H          18.7006    5.1407   18.0618 H     505  UNL505      0.1146
   2021 N          18.0059    7.2399    0.7283 N.3   506  UNL506     -0.3437
   2022 H          17.5642    7.5305    1.5994 H     506  UNL506      0.1146
   2023 H          18.7315    7.9295    0.5376 H     506  UNL506      0.1146
   2024 H          18.4934    6.3698    0.9372 H     506  UNL506      0.1146
   2025 N          18.2419    7.0336    3.2388 N.3   507  UNL507     -0.3437
   2026 H          17.4968    6.8843    2.5600 H     507  UNL507      0.1146
   2027 H          19.0700    7.2784    2.6977 H     507  UNL507      0.1146
   2028 H          17.9863    7.8733    3.7564 H     507  UNL507      0.1146
   2029 N          18.1361    7.4755    5.3662 N.3   508  UNL508     -0.3437
   2030 H          19.0983    7.5250    5.0345 H     508  UNL508      0.1146
   2031 H          17.5490    7.5382    4.5356 H     508  UNL508      0.1146
   2032 H          18.0117    6.5308    5.7273 H     508  UNL508      0.1146
   2033 N          17.9867    7.2399    7.0845 N.3   509  UNL509     -0.3437
   2034 H          17.6251    7.5305    7.9917 H     509  UNL509      0.1146
   2035 H          18.6922    7.9295    6.8293 H     509  UNL509      0.1146
   2036 H          18.4910    6.3698    7.2487 H     509  UNL509      0.1146
   2037 N          18.2431    7.0487    9.2073 N.3   510  UNL510     -0.3437
   2038 H          17.2986    7.0507    9.5898 H     510  UNL510      0.1146
   2039 H          18.3827    7.9719    8.7991 H     510  UNL510      0.1146
   2040 H          18.8706    6.9982   10.0087 H     510  UNL510      0.1146
   2041 N          17.9927    7.1187   11.6650 N.3   511  UNL511     -0.3437
   2042 H          17.6206    7.5695   10.8303 H     511  UNL511      0.1146
   2043 H          18.7548    6.5222   11.3460 H     511  UNL511      0.1146
   2044 H          18.4269    7.8592   12.2142 H     511  UNL511      0.1146
   2045 N          17.9637    7.3247   13.4437 N.3   512  UNL512     -0.3437
   2046 H          18.0036    6.3461   13.7250 H     512  UNL512      0.1146
   2047 H          17.9168    7.8635   14.3073 H     512  UNL512      0.1146
   2048 H          18.8709    7.5353   13.0302 H     512  UNL512      0.1146
   2049 N          18.1298    7.1123   15.6250 N.3   513  UNL513     -0.3437
   2050 H          18.3633    7.1232   16.6168 H     513  UNL513      0.1146
   2051 H          17.1647    7.4327   15.5601 H     513  UNL513      0.1146
   2052 H          18.6972    7.8413   15.1949 H     513  UNL513      0.1146
   2053 N          17.9221    7.2569   18.7383 N.3   514  UNL514     -0.3437
   2054 H          18.0598    6.6633   19.5550 H     514  UNL514      0.1146
   2055 H          18.2012    8.1948   19.0224 H     514  UNL514      0.1146
   2056 H          18.6119    6.9545   18.0518 H     514  UNL514      0.1146
   2057 N          18.0341    9.7282    0.8155 N.3   515  UNL515     -0.3437
   2058 H          18.8728    9.4869    0.2895 H     515  UNL515      0.1146
   2059 H          17.5326    8.8532    0.9614 H     515  UNL515      0.1146
   2060 H          18.3555   10.0245    1.7360 H     515  UNL515      0.1146
   2061 N          18.0059    9.5729    3.2817 N.3   516  UNL516     -0.3437
   2062 H          17.5642    9.1965    2.4441 H     516  UNL516      0.1146
   2063 H          18.7315    8.9058    3.5405 H     516  UNL516      0.1146
   2064 H          18.4934   10.4177    2.9867 H     516  UNL516      0.1146
   2065 N          18.0159    9.3559    5.0269 N.3   517  UNL517     -0.3437
   2066 H          17.5742   10.1488    5.4902 H     517  UNL517      0.1146
   2067 H          18.7415    9.7486    4.4288 H     517  UNL517      0.1146
   2068 H          18.5034    8.8395    5.7577 H     517  UNL517      0.1146
   2069 N          18.2431    9.5392    6.9968 N.3   518  UNL518     -0.3437
   2070 H          17.2986    9.2408    7.2361 H     518  UNL518      0.1146
   2071 H          18.3827   10.4328    7.4661 H     518  UNL518      0.1146
   2072 H          18.8706    8.8801    7.4553 H     518  UNL518      0.1146
   2073 N          17.9694    9.4028    9.2587 N.3   519  UNL519     -0.3437
   2074 H          18.0972    9.0196   10.1942 H     519  UNL519      0.1146
   2075 H          17.8743   10.4103    9.3784 H     519  UNL519      0.1146
   2076 H          18.8540    9.2600    8.7735 H     519  UNL519      0.1146
   2077 N          18.2889    9.7111   11.7189 N.3   520  UNL520     -0.3437
   2078 H          18.4654   10.0339   10.7687 H     520  UNL520      0.1146
   2079 H          17.2833    9.5588   11.7816 H     520  UNL520      0.1146
   2080 H          18.7174    8.7890   11.7864 H     520  UNL520      0.1146
   2081 N          18.0059    9.4957   13.4042 N.3   521  UNL521     -0.3437
   2082 H          17.5642    9.7863   14.2753 H     521  UNL521      0.1146
   2083 H          18.7315   10.1853   13.2135 H     521  UNL521      0.1146
   2084 H          18.4934    8.6256   13.6131 H     521  UNL521      0.1146
   2085 N          18.2801    9.7111   15.9524 N.3   522  UNL522     -0.3437
   2086 H          18.5413   10.0339   15.0219 H     522  UNL522      0.1146
   2087 H          17.2729    9.5588   15.9244 H     522  UNL522      0.1146
   2088 H          18.7007    8.7890   16.0581 H     522  UNL522      0.1146
   2089 N          15.8868    7.5715   17.6516 N.3   523  UNL523     -0.3437
   2090 H          15.5476    7.6437   18.6098 H     523  UNL523      0.1146
   2091 H          16.6583    8.2329   17.5762 H     523  UNL523      0.1146
   2092 H          16.3024    6.6447   17.5699 H     523  UNL523      0.1146
   2093 N          18.0059   11.7515    0.7283 N.3   524  UNL524     -0.3437
   2094 H          17.5642   12.0421    1.5994 H     524  UNL524      0.1146
   2095 H          18.7315   12.4411    0.5376 H     524  UNL524      0.1146
   2096 H          18.4934   10.8814    0.9372 H     524  UNL524      0.1146
   2097 N          18.1361   12.7515    3.3508 N.3   525  UNL525     -0.3437
   2098 H          19.0983   13.0421    3.1834 H     525  UNL525      0.1146
   2099 H          17.5490   13.4411    2.8836 H     525  UNL525      0.1146
   2100 H          18.0117   11.8814    2.8352 H     525  UNL525      0.1146
   2101 N          18.1836   13.0059    4.9870 N.3   526  UNL526     -0.3437
   2102 H          17.3776   12.9560    5.6085 H     526  UNL526      0.1146
   2103 H          19.0024   13.0507    5.5920 H     526  UNL526      0.1146
   2104 H          18.2315   12.1035    4.5161 H     526  UNL526      0.1146
   2105 N          18.1836   13.0059    7.0997 N.3   527  UNL527     -0.3437
   2106 H          17.3776   12.9560    7.7211 H     527  UNL527      0.1146
   2107 H          19.0024   13.0507    7.7047 H     527  UNL527      0.1146
   2108 H          18.2315   12.1035    6.6288 H     527  UNL527      0.1146
   2109 N          18.1836   13.0059    9.2123 N.3   528  UNL528     -0.3437
   2110 H          17.3776   12.9560    9.8338 H     528  UNL528      0.1146
   2111 H          19.0024   13.0507    9.8173 H     528  UNL528      0.1146
   2112 H          18.2315   12.1035    8.7415 H     528  UNL528      0.1146
   2113 N          18.0092   11.7343   11.2916 N.3   529  UNL529     -0.3437
   2114 H          17.5431   11.9840   12.1627 H     529  UNL529      0.1146
   2115 H          18.6698   12.4863   11.1009 H     529  UNL529      0.1146
   2116 H          18.5729   10.9115   11.5005 H     529  UNL529      0.1146
   2117 N          18.0059   12.7515   13.4042 N.3   530  UNL530     -0.3437
   2118 H          17.5642   13.0421   14.2753 H     530  UNL530      0.1146
   2119 H          18.7315   13.4411   13.2135 H     530  UNL530      0.1146
   2120 H          18.4934   11.8814   13.6131 H     530  UNL530      0.1146
   2121 N          18.0059   11.7515   15.5169 N.3   531  UNL531     -0.3437
   2122 H          17.5642   12.0421   16.3880 H     531  UNL531      0.1146
   2123 H          18.7315   12.4411   15.3262 H     531  UNL531      0.1146
   2124 H          18.4934   10.8814   15.7258 H     531  UNL531      0.1146
   2125 N          18.0059   11.7316   17.6329 N.3   532  UNL532     -0.3437
   2126 H          17.5642   12.0993   18.4744 H     532  UNL532      0.1146
   2127 H          18.7315   12.4013   17.3810 H     532  UNL532      0.1146
   2128 H          18.4934   10.8838   17.9192 H     532  UNL532      0.1146
   2129 N          20.0313    0.5209    3.2863 N.3   533  UNL533     -0.3437
   2130 H          19.5896    0.2559    2.4071 H     533  UNL533      0.1146
   2131 H          20.7569   -0.1739    3.4568 H     533  UNL533      0.1146
   2132 H          20.5188    1.3968    3.1029 H     533  UNL533      0.1146
   2133 N          20.4027    0.7080    5.2681 N.3   534  UNL534     -0.3437
   2134 H          19.9523    0.9474    4.3860 H     534  UNL534      0.1146
   2135 H          19.6482    0.5378    5.9316 H     534  UNL534      0.1146
   2136 H          20.8533   -0.1935    5.1179 H     534  UNL534      0.1146
   2137 N          20.0121    0.4724    7.0845 N.3   535  UNL535     -0.3437
   2138 H          19.6504    0.7630    7.9917 H     535  UNL535      0.1146
   2139 H          20.7176    1.1620    6.8293 H     535  UNL535      0.1146
   2140 H          20.5164   -0.3977    7.2487 H     535  UNL535      0.1146
   2141 N          20.0028    0.6942   11.5395 N.3   536  UNL536     -0.3437
   2142 H          19.9779   -0.0283   12.2576 H     536  UNL536      0.1146
   2143 H          20.9208    1.1306   11.6118 H     536  UNL536      0.1146
   2144 H          19.9949    0.2031   10.6466 H     536  UNL536      0.1146
   2145 N          20.3699    0.6060   13.3888 N.3   537  UNL537     -0.3437
   2146 H          20.2364    1.2934   14.1290 H     537  UNL537      0.1146
   2147 H          20.8138   -0.1986   13.8293 H     537  UNL537      0.1146
   2148 H          19.4364    0.2989   13.1191 H     537  UNL537      0.1146
   2149 N          20.0313    0.4724   15.5169 N.3   538  UNL538     -0.3437
   2150 H          19.5896    0.7630   16.3880 H     538  UNL538      0.1146
   2151 H          20.7569    1.1620   15.3262 H     538  UNL538      0.1146
   2152 H          20.5188   -0.3977   15.7258 H     538  UNL538      0.1146
   2153 N          19.9475    0.4894   18.7483 N.3   539  UNL539     -0.3437
   2154 H          20.0852   -0.1041   19.5650 H     539  UNL539      0.1146
   2155 H          20.2266    1.4274   19.0324 H     539  UNL539      0.1146
   2156 H          20.6372    0.1871   18.0618 H     539  UNL539      0.1146
   2157 N          20.0313    0.7282    0.7283 N.3   540  UNL540     -0.3437
   2158 H          19.5896    1.0188    1.5994 H     540  UNL540      0.1146
   2159 H          20.7569    1.4178    0.5376 H     540  UNL540      0.1146
   2160 H          20.5188   -0.1419    0.9372 H     540  UNL540      0.1146
   2161 N          20.0228    2.5394    3.0699 N.3   541  UNL541     -0.3437
   2162 H          19.6430    3.4400    3.3581 H     541  UNL541      0.1146
   2163 H          20.4151    2.6844    2.1406 H     541  UNL541      0.1146
   2164 H          20.8155    2.3592    3.6843 H     541  UNL541      0.1146
   2165 N          20.0313    2.8391    4.9580 N.3   542  UNL542     -0.3437
   2166 H          19.5896    2.6725    5.8610 H     542  UNL542      0.1146
   2167 H          20.7569    3.5350    5.1243 H     542  UNL542      0.1146
   2168 H          20.5188    1.9764    4.7203 H     542  UNL542      0.1146
   2169 N          20.0313    2.9503    7.3996 N.3   543  UNL543     -0.3437
   2170 H          19.5896    2.0785    7.1111 H     543  UNL543      0.1146
   2171 H          20.7569    2.6904    8.0662 H     543  UNL543      0.1146
   2172 H          20.5188    3.3037    6.5775 H     543  UNL543      0.1146
   2173 N          20.0313    0.9503    9.5122 N.3   544  UNL544     -0.3437
   2174 H          19.5896    0.0785    9.2237 H     544  UNL544      0.1146
   2175 H          20.7569    0.6904   10.1788 H     544  UNL544      0.1146
   2176 H          20.5188    1.3037    8.6901 H     544  UNL544      0.1146
   2177 N          20.0313    2.7768   11.7369 N.3   545  UNL545     -0.3437
   2178 H          19.5896    2.5117   10.8577 H     545  UNL545      0.1146
   2179 H          20.7569    2.0819   11.9074 H     545  UNL545      0.1146
   2180 H          20.5188    3.6526   11.5535 H     545  UNL545      0.1146
   2181 N          20.0313    2.9389   13.4975 N.3   546  UNL546     -0.3437
   2182 H          19.5896    2.3075   14.1644 H     546  UNL546      0.1146
   2183 H          20.7569    3.4321   14.0158 H     546  UNL546      0.1146
   2184 H          20.5188    2.3445   12.8286 H     546  UNL546      0.1146
   2185 N          20.0181    2.6141   15.8764 N.3   547  UNL547     -0.3437
   2186 H          19.6460    3.1381   15.0856 H     547  UNL547      0.1146
   2187 H          20.7802    2.0486   15.5050 H     547  UNL547      0.1146
   2188 H          20.4522    3.3022   16.4899 H     547  UNL547      0.1146
   2189 N          19.9477    2.7701   18.7483 N.3   548  UNL548     -0.3437
   2190 H          20.0314    2.1666   19.5650 H     548  UNL548      0.1146
   2191 H          20.3099    3.6792   19.0324 H     548  UNL548      0.1146
   2192 H          20.6074    2.4070   18.0618 H     548  UNL548      0.1146
   2193 N          20.4961    5.0607    0.8946 N.3   549  UNL549     -0.3437
   2194 H          20.3530    4.0933    1.1808 H     549  UNL549      0.1146
   2195 H          19.8662    5.2173    0.1090 H     549  UNL549      0.1146
   2196 H          20.1411    5.6349    1.6579 H     549  UNL549      0.1146
   2197 N          20.0313    4.7896    3.0330 N.3   550  UNL550     -0.3437
   2198 H          19.5896    5.7060    2.9747 H     550  UNL550      0.1146
   2199 H          20.7569    4.7815    2.3176 H     550  UNL550      0.1146
   2200 H          20.5188    4.7692    3.9276 H     550  UNL550      0.1146
   2201 N          20.1221    5.2220    5.3567 N.3   551  UNL551     -0.3437
   2202 H          21.0653    5.4134    5.0219 H     551  UNL551      0.1146
   2203 H          19.5467    5.1049    4.5238 H     551  UNL551      0.1146
   2204 H          20.1624    4.3060    5.8012 H     551  UNL551      0.1146
   2205 N          20.0313    4.9840    7.0662 N.3   552  UNL552     -0.3437
   2206 H          19.5896    5.2746    7.9373 H     552  UNL552      0.1146
   2207 H          20.7569    5.6736    6.8755 H     552  UNL552      0.1146
   2208 H          20.5188    4.1139    7.2751 H     552  UNL552      0.1146
   2209 N          20.0313    2.9840    9.1789 N.3   553  UNL553     -0.3437
   2210 H          19.5896    3.2746   10.0500 H     553  UNL553      0.1146
   2211 H          20.7569    3.6736    8.9882 H     553  UNL553      0.1146
   2212 H          20.5188    2.1139    9.3878 H     553  UNL553      0.1146
   2213 N          19.9475    5.0011   11.4103 N.3   554  UNL554     -0.3437
   2214 H          20.0852    4.4075   12.2270 H     554  UNL554      0.1146
   2215 H          20.2266    5.9390   11.6944 H     554  UNL554      0.1146
   2216 H          20.6372    4.6987   10.7238 H     554  UNL554      0.1146
   2217 N          20.0313    4.8499   13.7817 N.3   555  UNL555     -0.3437
   2218 H          19.5896    5.3739   13.0275 H     555  UNL555      0.1146
   2219 H          20.7569    4.2844   13.3433 H     555  UNL555      0.1146
   2220 H          20.5188    5.5380   14.3537 H     555  UNL555      0.1146
   2221 N          19.9948    4.8912   15.5967 N.3   556  UNL556     -0.3437
   2222 H          20.1226    4.5080   16.5322 H     556  UNL556      0.1146
   2223 H          19.8997    5.8987   15.7164 H     556  UNL556      0.1146
   2224 H          20.8794    4.7484   15.1115 H     556  UNL556      0.1146
   2225 N          20.0750    4.8067   19.0042 N.3   557  UNL557     -0.3437
   2226 H          20.9909    5.0060   19.4040 H     557  UNL557      0.1146
   2227 H          19.5865    5.7001   18.9622 H     557  UNL557      0.1146
   2228 H          20.2441    4.5335   18.0372 H     557  UNL557      0.1146
   2229 N          20.0313    7.0761    0.8339 N.3   558  UNL558     -0.3437
   2230 H          19.5896    7.9391    1.1478 H     558  UNL558      0.1146
   2231 H          20.7569    7.3554    0.1752 H     558  UNL558      0.1146
   2232 H          20.5188    6.6989    1.6454 H     558  UNL558      0.1146
   2233 N          20.0841    7.0204    2.9559 N.3   559  UNL559     -0.3437
   2234 H          20.8735    6.8337    3.5727 H     559  UNL559      0.1146
   2235 H          19.4498    7.6176    3.4845 H     559  UNL559      0.1146
   2236 H          20.4490    7.5979    2.1998 H     559  UNL559      0.1146
   2237 N          20.3303    7.2234    5.3160 N.3   560  UNL560     -0.3437
   2238 H          19.9354    6.7433    4.5085 H     560  UNL560      0.1146
   2239 H          20.6426    8.1323    4.9774 H     560  UNL560      0.1146
   2240 H          19.5481    7.4105    5.9417 H     560  UNL560      0.1146
   2241 N          20.0313    7.0761    7.1719 N.3   561  UNL561     -0.3437
   2242 H          19.5896    7.9391    7.4858 H     561  UNL561      0.1146
   2243 H          20.7569    7.3554    6.5132 H     561  UNL561      0.1146
   2244 H          20.5188    6.6989    7.9834 H     561  UNL561      0.1146
   2245 N          20.4367    5.1524    9.2311 N.3   562  UNL562     -0.3437
   2246 H          20.0390    6.0060    8.8418 H     562  UNL562      0.1146
   2247 H          20.7671    5.3963   10.1636 H     562  UNL562      0.1146
   2248 H          19.6537    4.5149    9.3684 H     562  UNL562      0.1146
   2249 N          20.0755    7.3950   11.2861 N.3   563  UNL563     -0.3437
   2250 H          19.4363    7.1088   12.0263 H     563  UNL563      0.1146
   2251 H          20.7581    8.0101   11.7267 H     563  UNL563      0.1146
   2252 H          20.5866    6.5557   11.0164 H     563  UNL563      0.1146
   2253 N          20.0313    7.2399   13.4042 N.3   564  UNL564     -0.3437
   2254 H          19.5896    7.5305   14.2753 H     564  UNL564      0.1146
   2255 H          20.7569    7.9295   13.2135 H     564  UNL564      0.1146
   2256 H          20.5188    6.3698   13.6131 H     564  UNL564      0.1146
   2257 N          20.2685    7.0487   15.5453 N.3   565  UNL565     -0.3437
   2258 H          19.3240    7.0507   15.9278 H     565  UNL565      0.1146
   2259 H          20.4081    7.9719   15.1371 H     565  UNL565      0.1146
   2260 H          20.8959    6.9982   16.3466 H     565  UNL565      0.1146
   2261 N          19.8110    6.9965   19.2838 N.3   566  UNL566     -0.3437
   2262 H          20.7761    6.8961   19.5952 H     566  UNL566      0.1146
   2263 H          19.5595    7.9686   19.4577 H     566  UNL566      0.1146
   2264 H          19.8300    6.8883   18.2708 H     566  UNL566      0.1146
   2265 N          20.0120    9.7174    0.8723 N.3   567  UNL567     -0.3437
   2266 H          19.6540    8.8990    1.3626 H     567  UNL567      0.1146
   2267 H          20.7305   10.1145    1.4760 H     567  UNL567      0.1146
   2268 H          20.5000    9.3619    0.0514 H     567  UNL567      0.1146
   2269 N          20.4969    9.6336    3.0359 N.3   568  UNL568     -0.3437
   2270 H          19.8935   10.2137    3.6170 H     568  UNL568      0.1146
   2271 H          20.4875    8.7066    3.4589 H     568  UNL568      0.1146
   2272 H          20.0185    9.5389    2.1412 H     568  UNL568      0.1146
   2273 N          20.2568    9.6066    4.8914 N.3   569  UNL569     -0.3437
   2274 H          19.3470    9.1927    5.0895 H     569  UNL569      0.1146
   2275 H          20.3439   10.4061    5.5172 H     569  UNL569      0.1146
   2276 H          20.9487    8.9275    5.2054 H     569  UNL569      0.1146
   2277 N          20.4111    9.7111    7.1578 N.3   570  UNL570     -0.3437
   2278 H          19.4449   10.0339    7.1311 H     570  UNL570      0.1146
   2279 H          20.6293    9.5588    8.1414 H     570  UNL570      0.1146
   2280 H          20.4112    8.7890    6.7240 H     570  UNL570      0.1146
   2281 N          20.0313    7.7178    9.5122 N.3   571  UNL571     -0.3437
   2282 H          19.5896    6.8460    9.2237 H     571  UNL571      0.1146
   2283 H          20.7569    7.4579   10.1788 H     571  UNL571      0.1146
   2284 H          20.5188    8.0711    8.6901 H     571  UNL571      0.1146
   2285 N          20.0466    9.3449   11.6690 N.3   572  UNL572     -0.3437
   2286 H          19.5596    9.8270   10.9149 H     572  UNL572      0.1146
   2287 H          20.8201    8.8469   11.2306 H     572  UNL572      0.1146
   2288 H          20.4703   10.0740   12.2411 H     572  UNL572      0.1146
   2289 N          20.2568    9.5966   13.3421 N.3   573  UNL573     -0.3437
   2290 H          19.3470    9.1827   13.5401 H     573  UNL573      0.1146
   2291 H          20.3439   10.3961   13.9679 H     573  UNL573      0.1146
   2292 H          20.9487    8.9175   13.6561 H     573  UNL573      0.1146
   2293 N          20.0181    9.3616   15.8764 N.3   574  UNL574     -0.3437
   2294 H          19.6460    9.8855   15.0856 H     574  UNL574      0.1146
   2295 H          20.7802    8.7961   15.5050 H     574  UNL574      0.1146
   2296 H          20.4522   10.0496   16.4899 H     574  UNL574      0.1146
   2297 N          18.0313    9.4758   17.6329 N.3   575  UNL575     -0.3437
   2298 H          17.5896    9.8435   18.4744 H     575  UNL575      0.1146
   2299 H          18.7569   10.1455   17.3810 H     575  UNL575      0.1146
   2300 H          18.5188    8.6280   17.9192 H     575  UNL575      0.1146
   2301 N          20.2374   12.6640   -1.4334 N.3   576  UNL576     -0.3437
   2302 H          19.6813   13.5176   -1.4137 H     576  UNL576      0.1146
   2303 H          21.1407   12.9079   -1.0297 H     576  UNL576      0.1146
   2304 H          19.7970   12.0265   -0.7715 H     576  UNL576      0.1146
   2305 N          20.0313   11.7515    0.7283 N.3   577  UNL577     -0.3437
   2306 H          19.5896   12.0421    1.5994 H     577  UNL577      0.1146
   2307 H          20.7569   12.4411    0.5376 H     577  UNL577      0.1146
   2308 H          20.5188   10.8814    0.9372 H     577  UNL577      0.1146
   2309 N          20.0313   11.7515    2.8409 N.3   578  UNL578     -0.3437
   2310 H          19.5896   12.0421    3.7120 H     578  UNL578      0.1146
   2311 H          20.7569   12.4411    2.6502 H     578  UNL578      0.1146
   2312 H          20.5188   10.8814    3.0498 H     578  UNL578      0.1146
   2313 N          20.1163   11.9615    4.9698 N.3   579  UNL579     -0.3437
   2314 H          20.3047   12.4325    5.8536 H     579  UNL579      0.1146
   2315 H          20.9945   11.5265    4.6906 H     579  UNL579      0.1146
   2316 H          19.4810   11.1956    5.1896 H     579  UNL579      0.1146
   2317 N          20.0313   11.7515    7.0662 N.3   580  UNL580     -0.3437
   2318 H          19.5896   12.0421    7.9373 H     580  UNL580      0.1146
   2319 H          20.7569   12.4411    6.8755 H     580  UNL580      0.1146
   2320 H          20.5188   10.8814    7.2751 H     580  UNL580      0.1146
   2321 N          20.0313   11.7515    9.1789 N.3   581  UNL581     -0.3437
   2322 H          19.5896   12.0421   10.0500 H     581  UNL581      0.1146
   2323 H          20.7569   12.4411    8.9882 H     581  UNL581      0.1146
   2324 H          20.5188   10.8814    9.3878 H     581  UNL581      0.1146
   2325 N          20.1614   12.7515   11.8014 N.3   582  UNL582     -0.3437
   2326 H          21.1236   13.0421   11.6340 H     582  UNL582      0.1146
   2327 H          19.5744   13.4411   11.3343 H     582  UNL582      0.1146
   2328 H          20.0370   11.8814   11.2859 H     582  UNL582      0.1146
   2329 N          20.0313   12.7515   13.4042 N.3   583  UNL583     -0.3437
   2330 H          19.5896   13.0421   14.2753 H     583  UNL583      0.1146
   2331 H          20.7569   13.4411   13.2135 H     583  UNL583      0.1146
   2332 H          20.5188   11.8814   13.6131 H     583  UNL583      0.1146
   2333 N          20.2090   13.0059   15.5503 N.3   584  UNL584     -0.3437
   2334 H          19.4029   12.9560   16.1718 H     584  UNL584      0.1146
   2335 H          21.0277   13.0507   16.1553 H     584  UNL584      0.1146
   2336 H          20.2568   12.1035   15.0794 H     584  UNL584      0.1146
   2337 N          20.5176   12.7515   18.8304 N.3   585  UNL585     -0.3437
   2338 H          20.0841   13.0421   17.9552 H     585  UNL585      0.1146
   2339 H          20.2362   13.4411   19.5259 H     585  UNL585      0.1146
   2340 H          20.0585   11.8814   19.0960 H     585  UNL585      0.1146
   2341 N          22.1331    0.6878    3.2551 N.3   586  UNL586     -0.3437
   2342 H          23.0044    1.0107    2.8368 H     586  UNL586      0.1146
   2343 H          21.4890    0.5355    2.4803 H     586  UNL586      0.1146
   2344 H          22.3314   -0.2343    3.6408 H     586  UNL586      0.1146
   2345 N          22.0809    0.6275    4.9615 N.3   587  UNL587     -0.3437
   2346 H          21.5108    0.3414    5.7562 H     587  UNL587      0.1146
   2347 H          22.8004    1.2426    5.3389 H     587  UNL587      0.1146
   2348 H          22.5658   -0.2118    4.6470 H     587  UNL587      0.1146
   2349 N          22.0771    0.4525    7.0532 N.3   588  UNL588     -0.3437
   2350 H          21.5615    0.8202    7.8515 H     588  UNL588      0.1146
   2351 H          22.8224    1.1222    6.8675 H     588  UNL588      0.1146
   2352 H          22.5369   -0.3953    7.3821 H     588  UNL588      0.1146
   2353 N          22.0713    0.3383    9.5730 N.3   589  UNL589     -0.3437
   2354 H          21.5637    0.8623    8.8617 H     589  UNL589      0.1146
   2355 H          22.7546   -0.2272    9.0712 H     589  UNL589      0.1146
   2356 H          22.6083    1.0264   10.0990 H     589  UNL589      0.1146
   2357 N          22.4251    0.4104   11.2936 N.3   590  UNL590     -0.3437
   2358 H          21.4794    0.6254   10.9810 H     590  UNL590      0.1146
   2359 H          22.7674    1.2531   11.7531 H     590  UNL590      0.1146
   2360 H          22.3260   -0.2892   12.0279 H     590  UNL590      0.1146
   2361 N          22.0566    0.3326   13.4776 N.3   591  UNL591     -0.3437
   2362 H          21.6149    1.1255   13.9408 H     591  UNL591      0.1146
   2363 H          22.7822    0.7253   12.8795 H     591  UNL591      0.1146
   2364 H          22.5441   -0.1838   14.2083 H     591  UNL591      0.1146
   2365 N          22.0566    0.3383   15.8943 N.3   592  UNL592     -0.3437
   2366 H          21.6149    0.8623   15.1402 H     592  UNL592      0.1146
   2367 H          22.7822   -0.2272   15.4560 H     592  UNL592      0.1146
   2368 H          22.5441    1.0264   16.4664 H     592  UNL592      0.1146
   2369 N          22.0566   -1.7225   17.8787 N.3   593  UNL593     -0.3437
   2370 H          21.6149   -0.8505   17.5909 H     593  UNL593      0.1146
   2371 H          22.7822   -1.9110   17.1885 H     593  UNL593      0.1146
   2372 H          22.5441   -1.5163   18.7494 H     593  UNL593      0.1146
   2373 N          22.0566    0.7282    0.7283 N.3   594  UNL594     -0.3437
   2374 H          21.6149    1.0188    1.5994 H     594  UNL594      0.1146
   2375 H          22.7822    1.4178    0.5376 H     594  UNL594      0.1146
   2376 H          22.5441   -0.1419    0.9372 H     594  UNL594      0.1146
   2377 N          22.0437    2.9190    3.2113 N.3   595  UNL595     -0.3437
   2378 H          21.6010    2.1815    2.6649 H     595  UNL595      0.1146
   2379 H          22.6775    2.4489    3.8560 H     595  UNL595      0.1146
   2380 H          22.6357    3.4336    2.5608 H     595  UNL595      0.1146
   2381 N          22.1431    2.9610    5.3601 N.3   596  UNL596     -0.3437
   2382 H          23.0144    3.2450    4.9144 H     596  UNL596      0.1146
   2383 H          21.4990    2.7396    4.6020 H     596  UNL596      0.1146
   2384 H          22.3414    2.0773    5.8271 H     596  UNL596      0.1146
   2385 N          22.0065    2.7859    7.4680 N.3   597  UNL597     -0.3437
   2386 H          22.0677    3.5291    6.7735 H     597  UNL597      0.1146
   2387 H          21.9899    1.9122    6.9437 H     597  UNL597      0.1146
   2388 H          22.8938    2.7958    7.9690 H     597  UNL597      0.1146
   2389 N          22.3086    2.7184    9.6762 N.3   598  UNL598     -0.3437
   2390 H          22.3917    1.8592    9.1348 H     598  UNL598      0.1146
   2391 H          22.9054    3.4017    9.2120 H     598  UNL598      0.1146
   2392 H          21.3523    3.0437    9.5419 H     598  UNL598      0.1146
   2393 N          22.3840    2.9339   11.6921 N.3   599  UNL599     -0.3437
   2394 H          22.9660    2.4753   10.9926 H     599  UNL599      0.1146
   2395 H          21.6584    3.4274   11.1741 H     599  UNL599      0.1146
   2396 H          21.9096    2.1864   12.1967 H     599  UNL599      0.1146
   2397 N          22.0374    2.7282   13.4225 N.3   600  UNL600     -0.3437
   2398 H          21.6758    3.0188   14.3297 H     600  UNL600      0.1146
   2399 H          22.7429    3.4178   13.1673 H     600  UNL600      0.1146
   2400 H          22.5417    1.8581   13.5867 H     600  UNL600      0.1146
   2401 N          22.2806    2.4907   15.6150 N.3   601  UNL601     -0.3437
   2402 H          22.5140    2.5016   16.6068 H     601  UNL601      0.1146
   2403 H          21.3154    2.8110   15.5501 H     601  UNL601      0.1146
   2404 H          22.8479    3.2197   15.1849 H     601  UNL601      0.1146
   2405 N          22.0566    0.7282   17.6295 N.3   602  UNL602     -0.3437
   2406 H          21.6149    1.0188   18.5006 H     602  UNL602      0.1146
   2407 H          22.7822    1.4178   17.4388 H     602  UNL602      0.1146
   2408 H          22.5441   -0.1419   17.8384 H     602  UNL602      0.1146
   2409 N          21.9907    4.8986    0.8277 N.3   603  UNL603     -0.3437
   2410 H          22.5581    4.2012    1.3073 H     603  UNL603      0.1146
   2411 H          21.8152    5.6352    1.5097 H     603  UNL603      0.1146
   2412 H          22.5939    5.3113    0.1176 H     603  UNL603      0.1146
   2413 N          22.3208    5.1995    3.2764 N.3   604  UNL604     -0.3437
   2414 H          22.5820    5.5223    2.3459 H     604  UNL604      0.1146
   2415 H          21.3136    5.0471    3.2485 H     604  UNL604      0.1146
   2416 H          22.7415    4.2774    3.3822 H     604  UNL604      0.1146
   2417 N          22.3094    5.1767    5.4136 N.3   605  UNL605     -0.3437
   2418 H          21.4980    4.5748    5.5465 H     605  UNL605      0.1146
   2419 H          23.0787    4.5590    5.1586 H     605  UNL605      0.1146
   2420 H          22.1117    5.7358    4.5850 H     605  UNL605      0.1146
   2421 N          22.0566    4.8203    7.1719 N.3   606  UNL606     -0.3437
   2422 H          21.6149    5.6833    7.4858 H     606  UNL606      0.1146
   2423 H          22.7822    5.0996    6.5132 H     606  UNL606      0.1146
   2424 H          22.5441    4.4431    7.9834 H     606  UNL606      0.1146
   2425 N          22.0081    4.8457    9.3513 N.3   607  UNL607     -0.3437
   2426 H          22.3243    5.2943    8.4928 H     607  UNL607      0.1146
   2427 H          22.8025    4.3091    9.6969 H     607  UNL607      0.1146
   2428 H          21.8630    5.5972   10.0240 H     607  UNL607      0.1146
   2429 N          22.0566    4.7878   11.5042 N.3   608  UNL608     -0.3437
   2430 H          21.6149    5.6949   11.3619 H     608  UNL608      0.1146
   2431 H          22.7822    4.7139   10.7926 H     608  UNL608      0.1146
   2432 H          22.5441    4.8497   12.3969 H     608  UNL608      0.1146
   2433 N          22.0102    5.0434   13.8183 N.3   609  UNL609     -0.3437
   2434 H          22.1379    5.8122   13.1618 H     609  UNL609      0.1146
   2435 H          21.9151    4.2023   13.2509 H     609  UNL609      0.1146
   2436 H          22.8948    4.9484   14.3152 H     609  UNL609      0.1146
   2437 N          22.1881    4.9840   15.4514 N.3   610  UNL610     -0.3437
   2438 H          21.3804    5.2746   16.0005 H     610  UNL610      0.1146
   2439 H          22.9155    5.6736   15.6351 H     610  UNL610      0.1146
   2440 H          22.5139    4.1139   15.8699 H     610  UNL610      0.1146
   2441 N          22.4357    2.9840   19.0797 N.3   611  UNL611     -0.3437
   2442 H          22.9027    3.2746   18.2219 H     611  UNL611      0.1146
   2443 H          21.7049    3.6736   19.2492 H     611  UNL611      0.1146
   2444 H          21.9546    2.1139   18.8567 H     611  UNL611      0.1146
   2445 N          22.2822    7.3408   -1.4465 N.3   612  UNL612     -0.3437
   2446 H          21.3724    6.9268   -1.2485 H     612  UNL612      0.1146
   2447 H          22.3693    8.1402   -0.8207 H     612  UNL612      0.1146
   2448 H          22.9741    6.6617   -1.1325 H     612  UNL612      0.1146
   2449 N          22.1881    7.2399    0.6627 N.3   613  UNL613     -0.3437
   2450 H          21.3804    7.5305    1.2119 H     613  UNL613      0.1146
   2451 H          22.9155    7.9295    0.8465 H     613  UNL613      0.1146
   2452 H          22.5139    6.3698    1.0812 H     613  UNL613      0.1146
   2453 N          22.0566    7.2399    2.8409 N.3   614  UNL614     -0.3437
   2454 H          21.6149    7.5305    3.7120 H     614  UNL614      0.1146
   2455 H          22.7822    7.9295    2.6502 H     614  UNL614      0.1146
   2456 H          22.5441    6.3698    3.0498 H     614  UNL614      0.1146
   2457 N          22.2859    7.5465    5.2661 N.3   615  UNL615     -0.3437
   2458 H          21.3765    7.3871    4.8349 H     615  UNL615      0.1146
   2459 H          22.3573    6.8737    6.0280 H     615  UNL615      0.1146
   2460 H          22.9783    7.2623    4.5746 H     615  UNL615      0.1146
   2461 N          22.3354    7.4154    7.5295 N.3   616  UNL616     -0.3437
   2462 H          22.9554    7.5630    6.7344 H     616  UNL616      0.1146
   2463 H          21.4045    7.6835    7.2134 H     616  UNL616      0.1146
   2464 H          22.3026    6.4077    7.6769 H     616  UNL616      0.1146
   2465 N          22.2822    7.3408    9.1168 N.3   617  UNL617     -0.3437
   2466 H          21.3724    6.9268    9.3148 H     617  UNL617      0.1146
   2467 H          22.3693    8.1402    9.7426 H     617  UNL617      0.1146
   2468 H          22.9741    6.6617    9.4308 H     617  UNL617      0.1146
   2469 N          22.0566    7.2884   11.7369 N.3   618  UNL618     -0.3437
   2470 H          21.6149    7.0234   10.8577 H     618  UNL618      0.1146
   2471 H          22.7822    6.5935   11.9074 H     618  UNL618      0.1146
   2472 H          22.5441    8.1642   11.5535 H     618  UNL618      0.1146
   2473 N          22.3635    7.4459   13.8269 N.3   619  UNL619     -0.3437
   2474 H          23.0004    6.7229   13.4951 H     619  UNL619      0.1146
   2475 H          22.0478    7.9447   12.9963 H     619  UNL619      0.1146
   2476 H          21.5462    6.9561   14.1879 H     619  UNL619      0.1146
   2477 N          22.3952    7.5117   15.6807 N.3   620  UNL620     -0.3437
   2478 H          22.2618    7.3592   16.6793 H     620  UNL620      0.1146
   2479 H          22.8391    6.6665   15.3243 H     620  UNL620      0.1146
   2480 H          21.4618    7.5321   15.2725 H     620  UNL620      0.1146
   2481 N          22.2351    6.8439   17.8581 N.3   621  UNL621     -0.3437
   2482 H          23.2375    6.7986   17.6808 H     621  UNL621      0.1146
   2483 H          21.7985    6.2483   17.1560 H     621  UNL621      0.1146
   2484 H          22.0868    6.3787   18.7525 H     621  UNL621      0.1146
   2485 N          22.0411    9.3917    0.7873 N.3   622  UNL622     -0.3437
   2486 H          21.6571   10.0671    1.4467 H     622  UNL622      0.1146
   2487 H          22.7188    9.9032    0.2239 H     622  UNL622      0.1146
   2488 H          22.5809    8.7309    1.3445 H     622  UNL622      0.1146
   2489 N          22.0202    9.4028    2.9207 N.3   623  UNL623     -0.3437
   2490 H          22.1479    9.0196    3.8563 H     623  UNL623      0.1146
   2491 H          21.9251   10.4103    3.0405 H     623  UNL623      0.1146
   2492 H          22.9048    9.2600    2.4355 H     623  UNL623      0.1146
   2493 N          22.0566    9.3616    5.3310 N.3   624  UNL624     -0.3437
   2494 H          21.6149    9.8855    4.5769 H     624  UNL624      0.1146
   2495 H          22.7822    8.7961    4.8927 H     624  UNL624      0.1146
   2496 H          22.5441   10.0496    5.9031 H     624  UNL624      0.1146
   2497 N          22.1868    9.7485    7.4694 N.3   625  UNL625     -0.3437
   2498 H          23.1490    9.7680    7.1345 H     625  UNL625      0.1146
   2499 H          21.5998    9.7363    6.6365 H     625  UNL625      0.1146
   2500 H          22.0624    8.8400    7.9139 H     625  UNL625      0.1146
   2501 N          22.0202    9.4028    9.2587 N.3   626  UNL626     -0.3437
   2502 H          22.1479    9.0196   10.1942 H     626  UNL626      0.1146
   2503 H          21.9251   10.4103    9.3784 H     626  UNL626      0.1146
   2504 H          22.9048    9.2600    8.7735 H     626  UNL626      0.1146
   2505 N          22.2632    9.6899   11.2701 N.3   627  UNL627     -0.3437
   2506 H          21.6418   10.0779   11.9783 H     627  UNL627      0.1146
   2507 H          23.1694    9.5777   11.7226 H     627  UNL627      0.1146
   2508 H          21.9235    8.7473   11.0844 H     627  UNL627      0.1146
   2509 N          22.0566    9.4957   13.4042 N.3   628  UNL628     -0.3437
   2510 H          21.6149    9.7863   14.2753 H     628  UNL628      0.1146
   2511 H          22.7822   10.1853   13.2135 H     628  UNL628      0.1146
   2512 H          22.5441    8.6256   13.6131 H     628  UNL628      0.1146
   2513 N          22.3308    9.7111   15.9524 N.3   629  UNL629     -0.3437
   2514 H          22.5920   10.0339   15.0219 H     629  UNL629      0.1146
   2515 H          21.3236    9.5588   15.9244 H     629  UNL629      0.1146
   2516 H          22.7515    8.7890   16.0581 H     629  UNL629      0.1146
   2517 N          20.8892    7.6791   17.5820 N.3   630  UNL630     -0.3437
   2518 H          20.9009    6.6842   17.8023 H     630  UNL630      0.1146
   2519 H          19.9073    7.9334   17.4840 H     630  UNL630      0.1146
   2520 H          21.2206    8.1561   18.4192 H     630  UNL630      0.1146
   2521 N          22.2343   13.0059    0.7617 N.3   631  UNL631     -0.3437
   2522 H          21.4283   12.9560    1.3831 H     631  UNL631      0.1146
   2523 H          23.0531   13.0507    1.3667 H     631  UNL631      0.1146
   2524 H          22.2822   12.1035    0.2908 H     631  UNL631      0.1146
   2525 N          22.2343   13.0059    2.8744 N.3   632  UNL632     -0.3437
   2526 H          21.4283   12.9560    3.4958 H     632  UNL632      0.1146
   2527 H          23.0531   13.0507    3.4793 H     632  UNL632      0.1146
   2528 H          22.2822   12.1035    2.4035 H     632  UNL632      0.1146
   2529 N          22.2343   13.0059    4.9870 N.3   633  UNL633     -0.3437
   2530 H          21.4283   12.9560    5.6085 H     633  UNL633      0.1146
   2531 H          23.0531   13.0507    5.5920 H     633  UNL633      0.1146
   2532 H          22.2822   12.1035    4.5161 H     633  UNL633      0.1146
   2533 N          22.2343   13.0059    7.0997 N.3   634  UNL634     -0.3437
   2534 H          21.4283   12.9560    7.7211 H     634  UNL634      0.1146
   2535 H          23.0531   13.0507    7.7047 H     634  UNL634      0.1146
   2536 H          22.2822   12.1035    6.6288 H     634  UNL634      0.1146
   2537 N          22.2343   13.0059    9.2123 N.3   635  UNL635     -0.3437
   2538 H          21.4283   12.9560    9.8338 H     635  UNL635      0.1146
   2539 H          23.0531   13.0507    9.8173 H     635  UNL635      0.1146
   2540 H          22.2822   12.1035    8.7415 H     635  UNL635      0.1146
   2541 N          22.0599   11.7343   11.2916 N.3   636  UNL636     -0.3437
   2542 H          21.5939   11.9840   12.1627 H     636  UNL636      0.1146
   2543 H          22.7206   12.4863   11.1009 H     636  UNL636      0.1146
   2544 H          22.6236   10.9115   11.5005 H     636  UNL636      0.1146
   2545 N          22.0566   12.7515   13.4042 N.3   637  UNL637     -0.3437
   2546 H          21.6149   13.0421   14.2753 H     637  UNL637      0.1146
   2547 H          22.7822   13.4411   13.2135 H     637  UNL637      0.1146
   2548 H          22.5441   11.8814   13.6131 H     637  UNL637      0.1146
   2549 N          22.0566   11.7515   15.5169 N.3   638  UNL638     -0.3437
   2550 H          21.6149   12.0421   16.3880 H     638  UNL638      0.1146
   2551 H          22.7822   12.4411   15.3262 H     638  UNL638      0.1146
   2552 H          22.5441   10.8814   15.7258 H     638  UNL638      0.1146
   2553 N          22.1195   11.6477   17.6216 N.3   639  UNL639     -0.3437
   2554 H          21.5179   11.6427   18.4440 H     639  UNL639      0.1146
   2555 H          22.3164   12.6278   17.4237 H     639  UNL639      0.1146
   2556 H          23.0041   11.2379   17.9182 H     639  UNL639      0.1146
   2557 N          24.2886    0.6878    0.7228 N.3   640  UNL640     -0.3437
   2558 H          23.6671    1.0107    1.4630 H     640  UNL640      0.1146
   2559 H          25.1947    0.5355    1.1634 H     640  UNL640      0.1146
   2560 H          23.9489   -0.2343    0.4531 H     640  UNL640      0.1146
   2561 N          24.0820    0.4724    2.8409 N.3   641  UNL641     -0.3437
   2562 H          23.6403    0.7630    3.7120 H     641  UNL641      0.1146
   2563 H          24.8076    1.1620    2.6502 H     641  UNL641      0.1146
   2564 H          24.5695   -0.3977    3.0498 H     641  UNL641      0.1146
   2565 N          24.5246    0.6510    7.2357 N.3   642  UNL642     -0.3437
   2566 H          23.9853    0.4071    6.4063 H     642  UNL642      0.1146
   2567 H          23.8784    1.1327    7.8593 H     642  UNL642      0.1146
   2568 H          24.7510   -0.2311    7.6930 H     642  UNL642      0.1146
   2569 N          24.2886    0.6878    9.1735 N.3   643  UNL643     -0.3437
   2570 H          23.6671    1.0107    9.9137 H     643  UNL643      0.1146
   2571 H          25.1947    0.5355    9.6140 H     643  UNL643      0.1146
   2572 H          23.9489   -0.2343    8.9038 H     643  UNL643      0.1146
   2573 N          24.4160    0.7010   13.4764 N.3   644  UNL644     -0.3437
   2574 H          25.0142    0.3400   14.2182 H     644  UNL644      0.1146
   2575 H          24.1439   -0.1063   12.9172 H     644  UNL644      0.1146
   2576 H          23.5653    1.0250   13.9343 H     644  UNL644      0.1146
   2577 N          24.2886    0.4383   15.4604 N.3   645  UNL645     -0.3437
   2578 H          23.6671    1.2188   15.6677 H     645  UNL645      0.1146
   2579 H          25.1947    0.6887   15.8536 H     645  UNL645      0.1146
   2580 H          23.9489   -0.3461   16.0151 H     645  UNL645      0.1146
   2581 N          23.9982    0.4894   18.7483 N.3   646  UNL646     -0.3437
   2582 H          24.1359   -0.1041   19.5650 H     646  UNL646      0.1146
   2583 H          24.2773    1.4274   19.0324 H     646  UNL646      0.1146
   2584 H          24.6879    0.1871   18.0618 H     646  UNL646      0.1146
   2585 N          24.0455    2.8067    1.1300 N.3   647  UNL647     -0.3437
   2586 H          24.1733    3.5414    0.4356 H     647  UNL647      0.1146
   2587 H          23.9504    1.9381    0.6057 H     647  UNL647      0.1146
   2588 H          24.9301    2.7369    1.6310 H     647  UNL647      0.1146
   2589 N          24.1072    2.9138    2.8791 N.3   648  UNL648     -0.3437
   2590 H          23.8701    3.0613    3.8591 H     648  UNL648      0.1146
   2591 H          25.0857    3.1818    2.7835 H     648  UNL648      0.1146
   2592 H          24.0764    1.9060    2.7313 H     648  UNL648      0.1146
   2593 N          24.0820    0.9503    5.2869 N.3   649  UNL649     -0.3437
   2594 H          23.6403    0.0785    4.9984 H     649  UNL649      0.1146
   2595 H          24.8076    0.6904    5.9535 H     649  UNL649      0.1146
   2596 H          24.5695    1.3037    4.4648 H     649  UNL649      0.1146
   2597 N          24.2121    2.7282    7.5761 N.3   650  UNL650     -0.3437
   2598 H          25.1744    3.0188    7.4087 H     650  UNL650      0.1146
   2599 H          23.6251    3.4178    7.1089 H     650  UNL650      0.1146
   2600 H          24.0877    1.8581    7.0605 H     650  UNL650      0.1146
   2601 N          24.0820    2.7282    9.1789 N.3   651  UNL651     -0.3437
   2602 H          23.6403    3.0188   10.0500 H     651  UNL651      0.1146
   2603 H          24.8076    3.4178    8.9882 H     651  UNL651      0.1146
   2604 H          24.5695    1.8581    9.3878 H     651  UNL651      0.1146
   2605 N          24.0820    0.9637   11.4305 N.3   652  UNL652     -0.3437
   2606 H          23.6403    0.1957   11.9340 H     652  UNL652      0.1146
   2607 H          24.8076    1.3243   12.0484 H     652  UNL652      0.1146
   2608 H          24.5695    0.5393   10.6426 H     652  UNL652      0.1146
   2609 N          24.2121    2.7282   13.9141 N.3   653  UNL653     -0.3437
   2610 H          25.1744    3.0188   13.7467 H     653  UNL653      0.1146
   2611 H          23.6251    3.4178   13.4469 H     653  UNL653      0.1146
   2612 H          24.0877    1.8581   13.3985 H     653  UNL653      0.1146
   2613 N          24.0820    2.7282   15.5169 N.3   654  UNL654     -0.3437
   2614 H          23.6403    3.0188   16.3880 H     654  UNL654      0.1146
   2615 H          24.8076    3.4178   15.3262 H     654  UNL654      0.1146
   2616 H          24.5695    1.8581   15.7258 H     654  UNL654      0.1146
   2617 N          24.1046    2.9659   18.7483 N.3   655  UNL655     -0.3437
   2618 H          23.7253    2.4891   19.5650 H     655  UNL655      0.1146
   2619 H          25.0129    3.3303   19.0324 H     655  UNL655      0.1146
   2620 H          24.2966    2.2377   18.0618 H     655  UNL655      0.1146
   2621 N          24.3291    4.9840    0.6613 N.3   656  UNL656     -0.3437
   2622 H          23.3722    5.2746    0.8568 H     656  UNL656      0.1146
   2623 H          24.9295    5.6736    1.1112 H     656  UNL656      0.1146
   2624 H          24.4685    4.1139    1.1730 H     656  UNL656      0.1146
   2625 N          24.0820    5.0326    3.2863 N.3   657  UNL657     -0.3437
   2626 H          23.6403    4.7676    2.4071 H     657  UNL657      0.1146
   2627 H          24.8076    4.3377    3.4568 H     657  UNL657      0.1146
   2628 H          24.5695    5.9084    3.1029 H     657  UNL657      0.1146
   2629 N          24.0820    3.2062    5.2869 N.3   658  UNL658     -0.3437
   2630 H          23.6403    2.3344    4.9984 H     658  UNL658      0.1146
   2631 H          24.8076    2.9462    5.9535 H     658  UNL658      0.1146
   2632 H          24.5695    3.5595    4.4648 H     658  UNL658      0.1146
   2633 N          24.1029    4.8615    7.1212 N.3   659  UNL659     -0.3437
   2634 H          23.6444    5.4873    7.7819 H     659  UNL659      0.1146
   2635 H          24.7326    5.4451    6.5722 H     659  UNL659      0.1146
   2636 H          24.6995    4.2523    7.6790 H     659  UNL659      0.1146
   2637 N          24.0455    5.0625    9.5807 N.3   660  UNL660     -0.3437
   2638 H          24.1733    5.7972    8.8862 H     660  UNL660      0.1146
   2639 H          23.9504    4.1939    9.0564 H     660  UNL660      0.1146
   2640 H          24.9301    4.9927   10.0816 H     660  UNL660      0.1146
   2641 N          24.0920    3.1686   11.3541 N.3   661  UNL661     -0.3437
   2642 H          23.6503    2.6669   12.1232 H     661  UNL661      0.1146
   2643 H          24.8176    3.7466   11.7758 H     661  UNL661      0.1146
   2644 H          24.5795    2.4641   10.8024 H     661  UNL661      0.1146
   2645 N          24.5621    5.0545   13.5619 N.3   662  UNL662     -0.3437
   2646 H          24.0524    4.7160   12.7471 H     662  UNL662      0.1146
   2647 H          24.0856    5.9053   13.8578 H     662  UNL662      0.1146
   2648 H          24.3992    4.3705   14.2994 H     662  UNL662      0.1146
   2649 N          24.0820    5.2062   15.8502 N.3   663  UNL663     -0.3437
   2650 H          23.6403    4.3344   15.5617 H     663  UNL663      0.1146
   2651 H          24.8076    4.9462   16.5168 H     663  UNL663      0.1146
   2652 H          24.5695    5.5595   15.0281 H     663  UNL663      0.1146
   2653 N          22.1820    4.9740   17.6295 N.3   664  UNL664     -0.3437
   2654 H          21.7403    5.2646   18.5006 H     664  UNL664      0.1146
   2655 H          22.9076    5.6636   17.4388 H     664  UNL664      0.1146
   2656 H          22.6695    4.1039   17.8384 H     664  UNL664      0.1146
   2657 N          24.0927    7.4620    1.0785 N.3   665  UNL665     -0.3437
   2658 H          23.6269    6.5902    0.8308 H     665  UNL665      0.1146
   2659 H          24.8753    7.2021    1.6772 H     665  UNL665      0.1146
   2660 H          24.5044    7.8153    0.2159 H     665  UNL665      0.1146
   2661 N          24.0927    7.4620    3.1911 N.3   666  UNL666     -0.3437
   2662 H          23.6269    6.5902    2.9435 H     666  UNL666      0.1146
   2663 H          24.8753    7.2021    3.7898 H     666  UNL666      0.1146
   2664 H          24.5044    7.8153    2.3285 H     666  UNL666      0.1146
   2665 N          24.0820    5.2699    4.9536 N.3   667  UNL667     -0.3437
   2666 H          23.6403    5.5605    5.8247 H     667  UNL667      0.1146
   2667 H          24.8076    5.9595    4.7629 H     667  UNL667      0.1146
   2668 H          24.5695    4.3998    5.1625 H     667  UNL667      0.1146
   2669 N          24.3382    7.4448    7.0608 N.3   668  UNL668     -0.3437
   2670 H          23.8254    7.9217    7.8010 H     668  UNL668      0.1146
   2671 H          25.1709    7.0563    7.5014 H     668  UNL668      0.1146
   2672 H          23.7649    6.6467    6.7911 H     668  UNL668      0.1146
   2673 N          24.0820    7.0761    9.2846 N.3   669  UNL669     -0.3437
   2674 H          23.6403    7.9391    9.5984 H     669  UNL669      0.1146
   2675 H          24.8076    7.3554    8.6259 H     669  UNL669      0.1146
   2676 H          24.5695    6.6989   10.0960 H     669  UNL669      0.1146
   2677 N          24.0820    5.3057   11.6690 N.3   670  UNL670     -0.3437
   2678 H          23.6403    5.8297   10.9149 H     670  UNL670      0.1146
   2679 H          24.8076    4.7403   11.2306 H     670  UNL670      0.1146
   2680 H          24.5695    5.9938   12.2411 H     670  UNL670      0.1146
   2681 N          24.2886    7.4553   13.3988 N.3   671  UNL671     -0.3437
   2682 H          23.6671    7.7781   14.1390 H     671  UNL671      0.1146
   2683 H          25.1947    7.3029   13.8393 H     671  UNL671      0.1146
   2684 H          23.9489    6.5332   13.1291 H     671  UNL671      0.1146
   2685 N          24.0631    7.2200   15.5385 N.3   672  UNL672     -0.3437
   2686 H          23.6988    7.5877   16.4162 H     672  UNL672      0.1146
   2687 H          24.7631    7.8897   15.2224 H     672  UNL672      0.1146
   2688 H          24.5743    6.3722   15.7798 H     672  UNL672      0.1146
   2689 N          23.9982    7.2569   18.7483 N.3   673  UNL673     -0.3437
   2690 H          24.1359    6.6633   19.5650 H     673  UNL673      0.1146
   2691 H          24.2773    8.1948   19.0324 H     673  UNL673      0.1146
   2692 H          24.6879    6.9545   18.0618 H     673  UNL673      0.1146
   2693 N          24.2039    9.2741    0.8081 N.3   674  UNL674     -0.3437
   2694 H          24.5695    9.1024    1.7436 H     674  UNL674      0.1146
   2695 H          23.4086    9.8999    0.9278 H     674  UNL674      0.1146
   2696 H          24.9173    9.8163    0.3228 H     674  UNL674      0.1146
   2697 N          24.0820    9.3616    3.2183 N.3   675  UNL675     -0.3437
   2698 H          23.6403    9.8855    2.4642 H     675  UNL675      0.1146
   2699 H          24.8076    8.7961    2.7800 H     675  UNL675      0.1146
   2700 H          24.5695   10.0496    3.7904 H     675  UNL675      0.1146
   2701 N          24.1395    7.6712    5.3930 N.3   676  UNL676     -0.3437
   2702 H          25.1477    7.8188    5.3844 H     676  UNL676      0.1146
   2703 H          23.8084    7.9393    4.4673 H     676  UNL676      0.1146
   2704 H          24.0037    6.6635    5.4589 H     676  UNL676      0.1146
   2705 N          24.3382    9.7006    7.0608 N.3   677  UNL677     -0.3437
   2706 H          23.8254   10.1775    7.8010 H     677  UNL677      0.1146
   2707 H          25.1709    9.3121    7.5014 H     677  UNL677      0.1146
   2708 H          23.7649    8.9025    6.7911 H     677  UNL677      0.1146
   2709 N          24.0820    9.4957    9.1789 N.3   678  UNL678     -0.3437
   2710 H          23.6403    9.7863   10.0500 H     678  UNL678      0.1146
   2711 H          24.8076   10.1853    8.9882 H     678  UNL678      0.1146
   2712 H          24.5695    8.6256    9.3878 H     678  UNL678      0.1146
   2713 N          24.0820    7.3616   11.6690 N.3   679  UNL679     -0.3437
   2714 H          23.6403    7.8855   10.9149 H     679  UNL679      0.1146
   2715 H          24.8076    6.7961   11.2306 H     679  UNL679      0.1146
   2716 H          24.5695    8.0496   12.2411 H     679  UNL679      0.1146
   2717 N          23.9982    9.5127   13.5229 N.3   680  UNL680     -0.3437
   2718 H          24.1359    8.9191   14.3397 H     680  UNL680      0.1146
   2719 H          24.2773   10.4506   13.8071 H     680  UNL680      0.1146
   2720 H          24.6879    9.2103   12.8365 H     680  UNL680      0.1146
   2721 N          24.0820    9.3012   15.7090 N.3   681  UNL681     -0.3437
   2722 H          23.6403   10.2177   15.6507 H     681  UNL681      0.1146
   2723 H          24.8076    9.2931   14.9936 H     681  UNL681      0.1146
   2724 H          24.5695    9.2808   16.6036 H     681  UNL681      0.1146
   2725 N          22.4123    9.3852   17.6295 N.3   682  UNL682     -0.3437
   2726 H          22.4438    8.8574   18.5006 H     682  UNL682      0.1146
   2727 H          21.4256    9.5538   17.4388 H     682  UNL682      0.1146
   2728 H          22.8176   10.2965   17.8384 H     682  UNL682      0.1146
   2729 N          24.0820   11.7515    0.7283 N.3   683  UNL683     -0.3437
   2730 H          23.6403   12.0421    1.5994 H     683  UNL683      0.1146
   2731 H          24.8076   12.4411    0.5376 H     683  UNL683      0.1146
   2732 H          24.5695   10.8814    0.9372 H     683  UNL683      0.1146
   2733 N          24.0820   11.7515    2.8409 N.3   684  UNL684     -0.3437
   2734 H          23.6403   12.0421    3.7120 H     684  UNL684      0.1146
   2735 H          24.8076   12.4411    2.6502 H     684  UNL684      0.1146
   2736 H          24.5695   10.8814    3.0498 H     684  UNL684      0.1146
   2737 N          24.0820   11.7515    4.9536 N.3   685  UNL685     -0.3437
   2738 H          23.6403   12.0421    5.8247 H     685  UNL685      0.1146
   2739 H          24.8076   12.4411    4.7629 H     685  UNL685      0.1146
   2740 H          24.5695   10.8814    5.1625 H     685  UNL685      0.1146
   2741 N          24.0820   11.7515    7.0662 N.3   686  UNL686     -0.3437
   2742 H          23.6403   12.0421    7.9373 H     686  UNL686      0.1146
   2743 H          24.8076   12.4411    6.8755 H     686  UNL686      0.1146
   2744 H          24.5695   10.8814    7.2751 H     686  UNL686      0.1146
   2745 N          24.3192   11.5604    9.2073 N.3   687  UNL687     -0.3437
   2746 H          23.3747   11.5623    9.5898 H     687  UNL687      0.1146
   2747 H          24.4588   12.4835    8.7991 H     687  UNL687      0.1146
   2748 H          24.9466   11.5099   10.0087 H     687  UNL687      0.1146
   2749 N          24.0820   11.7515   11.2916 N.3   688  UNL688     -0.3437
   2750 H          23.6403   12.0421   12.1627 H     688  UNL688      0.1146
   2751 H          24.8076   12.4411   11.1009 H     688  UNL688      0.1146
   2752 H          24.5695   10.8814   11.5005 H     688  UNL688      0.1146
   2753 N          24.0820   12.7515   13.4042 N.3   689  UNL689     -0.3437
   2754 H          23.6403   13.0421   14.2753 H     689  UNL689      0.1146
   2755 H          24.8076   13.4411   13.2135 H     689  UNL689      0.1146
   2756 H          24.5695   11.8814   13.6131 H     689  UNL689      0.1146
   2757 N          24.2597   13.0059   15.5503 N.3   690  UNL690     -0.3437
   2758 H          23.4537   12.9560   16.1718 H     690  UNL690      0.1146
   2759 H          25.0785   13.0507   16.1553 H     690  UNL690      0.1146
   2760 H          24.3076   12.1035   15.0794 H     690  UNL690      0.1146
   2761 N          24.0820   11.7515   17.6295 N.3   691  UNL691     -0.3437
   2762 H          23.6403   12.0421   18.5006 H     691  UNL691      0.1146
   2763 H          24.8076   12.4411   17.4388 H     691  UNL691      0.1146
   2764 H          24.5695   10.8814   17.8384 H     691  UNL691      0.1146
   2765 N          27.1073    0.5339    1.1720 N.3   692  UNL692     -0.3437
   2766 H          26.6656    0.2180    0.3098 H     692  UNL692      0.1146
   2767 H          27.8329   -0.1498    1.3828 H     692  UNL692      0.1146
   2768 H          27.5948    1.3976    0.9378 H     692  UNL692      0.1146
   2769 N          27.1073    0.6945    3.1742 N.3   693  UNL693     -0.3437
   2770 H          26.6656   -0.1773    2.8857 H     693  UNL693      0.1146
   2771 H          27.8329    0.4346    3.8408 H     693  UNL693      0.1146
   2772 H          27.5948    1.0479    2.3521 H     693  UNL693      0.1146
   2773 N          27.0882    0.5339    5.3791 N.3   694  UNL694     -0.3437
   2774 H          26.7258    0.2180    4.4807 H     694  UNL694      0.1146
   2775 H          27.7919   -0.1498    5.6542 H     694  UNL694      0.1146
   2776 H          27.5948    1.3976    5.1896 H     694  UNL694      0.1146
   2777 N          27.1073    0.5339    7.5100 N.3   695  UNL695     -0.3437
   2778 H          26.6656    0.2180    6.6478 H     695  UNL695      0.1146
   2779 H          27.8329   -0.1498    7.7208 H     695  UNL695      0.1146
   2780 H          27.5948    1.3976    7.2758 H     695  UNL695      0.1146
   2781 N          27.1073    0.5339    9.6227 N.3   696  UNL696     -0.3437
   2782 H          26.6656    0.2180    8.7604 H     696  UNL696      0.1146
   2783 H          27.8329   -0.1498    9.8334 H     696  UNL696      0.1146
   2784 H          27.5948    1.3976    9.3884 H     696  UNL696      0.1146
   2785 N          27.1181    0.6945   11.6418 N.3   697  UNL697     -0.3437
   2786 H          26.6523   -0.1773   11.3941 H     697  UNL697      0.1146
   2787 H          27.9007    0.4346   12.2405 H     697  UNL697      0.1146
   2788 H          27.5297    1.0479   10.7792 H     697  UNL697      0.1146
   2789 N          27.1073    0.5339   13.8480 N.3   698  UNL698     -0.3437
   2790 H          26.6656    0.2180   12.9857 H     698  UNL698      0.1146
   2791 H          27.8329   -0.1498   14.0587 H     698  UNL698      0.1146
   2792 H          27.5948    1.3976   13.6137 H     698  UNL698      0.1146
   2793 N          27.1073    0.6945   15.8502 N.3   699  UNL699     -0.3437
   2794 H          26.6656   -0.1773   15.5617 H     699  UNL699      0.1146
   2795 H          27.8329    0.4346   16.5168 H     699  UNL699      0.1146
   2796 H          27.5948    1.0479   15.0281 H     699  UNL699      0.1146
   2797 N          27.1365    0.2767   18.7383 N.3   700  UNL700     -0.3437
   2798 H          27.6870    0.0156   19.5550 H     700  UNL700      0.1146
   2799 H          26.5752    1.0784   19.0224 H     700  UNL700      0.1146
   2800 H          27.8021    0.6290   18.0518 H     700  UNL700      0.1146
   2801 N          27.1181    2.9503    1.0785 N.3   701  UNL701     -0.3437
   2802 H          26.6523    2.0785    0.8308 H     701  UNL701      0.1146
   2803 H          27.9007    2.6904    1.6772 H     701  UNL701      0.1146
   2804 H          27.5297    3.3037    0.2159 H     701  UNL701      0.1146
   2805 N          27.1073    2.7898    3.2847 N.3   702  UNL702     -0.3437
   2806 H          26.6656    2.4738    2.4224 H     702  UNL702      0.1146
   2807 H          27.8329    2.1060    3.4954 H     702  UNL702      0.1146
   2808 H          27.5948    3.6534    3.0504 H     702  UNL702      0.1146
   2809 N          27.1073    2.9503    5.2869 N.3   703  UNL703     -0.3437
   2810 H          26.6656    2.0785    4.9984 H     703  UNL703      0.1146
   2811 H          27.8329    2.6904    5.9535 H     703  UNL703      0.1146
   2812 H          27.5948    3.3037    4.4648 H     703  UNL703      0.1146
   2813 N          27.1073    2.9503    7.3996 N.3   704  UNL704     -0.3437
   2814 H          26.6656    2.0785    7.1111 H     704  UNL704      0.1146
   2815 H          27.8329    2.6904    8.0662 H     704  UNL704      0.1146
   2816 H          27.5948    3.3037    6.5775 H     704  UNL704      0.1146
   2817 N          27.1181    2.9503    9.5291 N.3   705  UNL705     -0.3437
   2818 H          26.6523    2.0785    9.2815 H     705  UNL705      0.1146
   2819 H          27.9007    2.6904   10.1278 H     705  UNL705      0.1146
   2820 H          27.5297    3.3037    8.6665 H     705  UNL705      0.1146
   2821 N          27.1073    2.7898   11.7353 N.3   706  UNL706     -0.3437
   2822 H          26.6656    2.4738   10.8731 H     706  UNL706      0.1146
   2823 H          27.8329    2.1060   11.9461 H     706  UNL706      0.1146
   2824 H          27.5948    3.6534   11.5011 H     706  UNL706      0.1146
   2825 N          27.1073    2.9503   13.7375 N.3   707  UNL707     -0.3437
   2826 H          26.6656    2.0785   13.4490 H     707  UNL707      0.1146
   2827 H          27.8329    2.6904   14.4041 H     707  UNL707      0.1146
   2828 H          27.5948    3.3037   12.9154 H     707  UNL707      0.1146
   2829 N          27.1073    2.7898   15.9606 N.3   708  UNL708     -0.3437
   2830 H          26.6656    2.4738   15.0984 H     708  UNL708      0.1146
   2831 H          27.8329    2.1060   16.1714 H     708  UNL708      0.1146
   2832 H          27.5948    3.6534   15.7264 H     708  UNL708      0.1146
   2833 N          27.4377    2.6177   18.6295 N.3   709  UNL709     -0.3437
   2834 H          27.4692    2.0899   19.5006 H     709  UNL709      0.1146
   2835 H          26.4509    2.7863   18.4388 H     709  UNL709      0.1146
   2836 H          27.8430    3.5290   18.8384 H     709  UNL709      0.1146
   2837 N          27.1073    5.0456    1.1720 N.3   710  UNL710     -0.3437
   2838 H          26.6656    4.7296    0.3098 H     710  UNL710      0.1146
   2839 H          27.8329    4.3618    1.3828 H     710  UNL710      0.1146
   2840 H          27.5948    5.9092    0.9378 H     710  UNL710      0.1146
   2841 N          27.1073    5.2062    3.1742 N.3   711  UNL711     -0.3437
   2842 H          26.6656    4.3344    2.8857 H     711  UNL711      0.1146
   2843 H          27.8329    4.9462    3.8408 H     711  UNL711      0.1146
   2844 H          27.5948    5.5595    2.3521 H     711  UNL711      0.1146
   2845 N          26.2850    5.2384    4.9870 N.3   712  UNL712     -0.3437
   2846 H          25.4790    5.1886    5.6085 H     712  UNL712      0.1146
   2847 H          27.1038    5.2833    5.5920 H     712  UNL712      0.1146
   2848 H          26.3329    4.3360    4.5161 H     712  UNL712      0.1146
   2849 N          27.0470    4.9028    7.1817 N.3   713  UNL713     -0.3437
   2850 H          27.5697    5.4373    6.4892 H     713  UNL713      0.1146
   2851 H          27.6801    4.1757    7.5117 H     713  UNL713      0.1146
   2852 H          26.9041    5.5305    7.9716 H     713  UNL713      0.1146
   2853 N          27.1073    5.2062    9.5122 N.3   714  UNL714     -0.3437
   2854 H          26.6656    4.3344    9.2237 H     714  UNL714      0.1146
   2855 H          27.8329    4.9462   10.1788 H     714  UNL714      0.1146
   2856 H          27.5948    5.5595    8.6901 H     714  UNL714      0.1146
   2857 N          26.2850    5.2384   11.3250 N.3   715  UNL715     -0.3437
   2858 H          25.4790    5.1886   11.9464 H     715  UNL715      0.1146
   2859 H          27.1038    5.2833   11.9300 H     715  UNL715      0.1146
   2860 H          26.3329    4.3360   10.8541 H     715  UNL715      0.1146
   2861 N          27.0203    5.1012   13.5179 N.3   716  UNL716     -0.3437
   2862 H          27.4711    5.8092   14.0958 H     716  UNL716      0.1146
   2863 H          27.6917    4.8645   12.7888 H     716  UNL716      0.1146
   2864 H          26.9377    4.2714   14.1037 H     716  UNL716      0.1146
   2865 N          27.1073    5.2195   15.6558 N.3   717  UNL717     -0.3437
   2866 H          26.6656    4.4516   16.1593 H     717  UNL717      0.1146
   2867 H          27.8329    5.5801   16.2737 H     717  UNL717      0.1146
   2868 H          27.5948    4.7951   14.8680 H     717  UNL717      0.1146
   2869 N          26.0519    5.1702   17.8757 N.3   718  UNL718     -0.3437
   2870 H          26.4680    4.9516   18.7798 H     718  UNL718      0.1146
   2871 H          26.7759    5.6489   17.3416 H     718  UNL718      0.1146
   2872 H          25.9050    4.2756   17.4104 H     718  UNL718      0.1146
   2873 N          27.1181    7.4620    1.0785 N.3   719  UNL719     -0.3437
   2874 H          26.6523    6.5902    0.8308 H     719  UNL719      0.1146
   2875 H          27.9007    7.2021    1.6772 H     719  UNL719      0.1146
   2876 H          27.5297    7.8153    0.2159 H     719  UNL719      0.1146
   2877 N          27.1073    7.3014    3.2847 N.3   720  UNL720     -0.3437
   2878 H          26.6656    6.9855    2.4224 H     720  UNL720      0.1146
   2879 H          27.8329    6.6177    3.4954 H     720  UNL720      0.1146
   2880 H          27.5948    8.1650    3.0504 H     720  UNL720      0.1146
   2881 N          27.1073    7.3014    5.3973 N.3   721  UNL721     -0.3437
   2882 H          26.6656    6.9855    4.5351 H     721  UNL721      0.1146
   2883 H          27.8329    6.6177    5.6081 H     721  UNL721      0.1146
   2884 H          27.5948    8.1650    5.1631 H     721  UNL721      0.1146
   2885 N          27.1073    7.3014    7.5100 N.3   722  UNL722     -0.3437
   2886 H          26.6656    6.9855    6.6478 H     722  UNL722      0.1146
   2887 H          27.8329    6.6177    7.7208 H     722  UNL722      0.1146
   2888 H          27.5948    8.1650    7.2758 H     722  UNL722      0.1146
   2889 N          27.1073    7.3014    9.6227 N.3   723  UNL723     -0.3437
   2890 H          26.6656    6.9855    8.7604 H     723  UNL723      0.1146
   2891 H          27.8329    6.6177    9.8334 H     723  UNL723      0.1146
   2892 H          27.5948    8.1650    9.3884 H     723  UNL723      0.1146
   2893 N          27.1073    7.3014   11.7353 N.3   724  UNL724     -0.3437
   2894 H          26.6656    6.9855   10.8731 H     724  UNL724      0.1146
   2895 H          27.8329    6.6177   11.9461 H     724  UNL724      0.1146
   2896 H          27.5948    8.1650   11.5011 H     724  UNL724      0.1146
   2897 N          27.1073    7.3014   13.8480 N.3   725  UNL725     -0.3437
   2898 H          26.6656    6.9855   12.9857 H     725  UNL725      0.1146
   2899 H          27.8329    6.6177   14.0587 H     725  UNL725      0.1146
   2900 H          27.5948    8.1650   13.6137 H     725  UNL725      0.1146
   2901 N          27.1073    7.4620   15.8502 N.3   726  UNL726     -0.3437
   2902 H          26.6656    6.5902   15.5617 H     726  UNL726      0.1146
   2903 H          27.8329    7.2021   16.5168 H     726  UNL726      0.1146
   2904 H          27.5948    7.8153   15.0281 H     726  UNL726      0.1146
   2905 N          27.1073    7.2399   18.6295 N.3   727  UNL727     -0.3437
   2906 H          26.6656    7.5305   19.5006 H     727  UNL727      0.1146
   2907 H          27.8329    7.9295   18.4388 H     727  UNL727      0.1146
   2908 H          27.5948    6.3698   18.8384 H     727  UNL727      0.1146
   2909 N          27.1073    9.5572    1.1720 N.3   728  UNL728     -0.3437
   2910 H          26.6656    9.2413    0.3098 H     728  UNL728      0.1146
   2911 H          27.8329    8.8735    1.3828 H     728  UNL728      0.1146
   2912 H          27.5948   10.4208    0.9378 H     728  UNL728      0.1146
   2913 N          27.1073    9.7178    3.1742 N.3   729  UNL729     -0.3437
   2914 H          26.6656    8.8460    2.8857 H     729  UNL729      0.1146
   2915 H          27.8329    9.4579    3.8408 H     729  UNL729      0.1146
   2916 H          27.5948   10.0711    2.3521 H     729  UNL729      0.1146
   2917 N          27.1181    9.7178    5.3038 N.3   730  UNL730     -0.3437
   2918 H          26.6523    8.8460    5.0562 H     730  UNL730      0.1146
   2919 H          27.9007    9.4579    5.9025 H     730  UNL730      0.1146
   2920 H          27.5297   10.0711    4.4412 H     730  UNL730      0.1146
   2921 N          27.1181    9.7178    7.4165 N.3   731  UNL731     -0.3437
   2922 H          26.6523    8.8460    7.1688 H     731  UNL731      0.1146
   2923 H          27.9007    9.4579    8.0151 H     731  UNL731      0.1146
   2924 H          27.5297   10.0711    6.5539 H     731  UNL731      0.1146
   2925 N          27.1181    9.7178    9.5291 N.3   732  UNL732     -0.3437
   2926 H          26.6523    8.8460    9.2815 H     732  UNL732      0.1146
   2927 H          27.9007    9.4579   10.1278 H     732  UNL732      0.1146
   2928 H          27.5297   10.0711    8.6665 H     732  UNL732      0.1146
   2929 N          27.1181    9.7178   11.6418 N.3   733  UNL733     -0.3437
   2930 H          26.6523    8.8460   11.3941 H     733  UNL733      0.1146
   2931 H          27.9007    9.4579   12.2405 H     733  UNL733      0.1146
   2932 H          27.5297   10.0711   10.7792 H     733  UNL733      0.1146
   2933 N          27.1181    9.7178   13.7544 N.3   734  UNL734     -0.3437
   2934 H          26.6523    8.8460   13.5068 H     734  UNL734      0.1146
   2935 H          27.9007    9.4579   14.3531 H     734  UNL734      0.1146
   2936 H          27.5297   10.0711   12.8918 H     734  UNL734      0.1146
   2937 N          27.1073    9.5572   15.9606 N.3   735  UNL735     -0.3437
   2938 H          26.6656    9.2413   15.0984 H     735  UNL735      0.1146
   2939 H          27.8329    8.8735   16.1714 H     735  UNL735      0.1146
   2940 H          27.5948   10.4208   15.7264 H     735  UNL735      0.1146
   2941 N          27.1073    9.7178   17.9629 N.3   736  UNL736     -0.3437
   2942 H          26.6656    8.8460   17.6744 H     736  UNL736      0.1146
   2943 H          27.8329    9.4579   18.6295 H     736  UNL736      0.1146
   2944 H          27.5948   10.0711   17.1408 H     736  UNL736      0.1146
   2945 N          27.4757   12.8244    1.1841 N.3   737  UNL737     -0.3437
   2946 H          27.6355   11.9210    0.7406 H     737  UNL737      0.1146
   2947 H          27.6038   13.5227    0.4531 H     737  UNL737      0.1146
   2948 H          26.4858   12.8480    1.4246 H     737  UNL737      0.1146
   2949 N          27.1073   11.9736    3.1742 N.3   738  UNL738     -0.3437
   2950 H          26.6656   11.1018    2.8857 H     738  UNL738      0.1146
   2951 H          27.8329   11.7137    3.8408 H     738  UNL738      0.1146
   2952 H          27.5948   12.3270    2.3521 H     738  UNL738      0.1146
   2953 N          26.2375   12.7515    5.4635 N.3   739  UNL739     -0.3437
   2954 H          27.1997   13.0421    5.2960 H     739  UNL739      0.1146
   2955 H          25.6505   13.4411    4.9963 H     739  UNL739      0.1146
   2956 H          26.1131   11.8814    4.9479 H     739  UNL739      0.1146
   2957 N          27.4757   12.8244    7.5221 N.3   740  UNL740     -0.3437
   2958 H          27.6355   11.9210    7.0786 H     740  UNL740      0.1146
   2959 H          27.6038   13.5227    6.7911 H     740  UNL740      0.1146
   2960 H          26.4858   12.8480    7.7626 H     740  UNL740      0.1146
   2961 N          27.1073   11.9736    9.5122 N.3   741  UNL741     -0.3437
   2962 H          26.6656   11.1018    9.2237 H     741  UNL741      0.1146
   2963 H          27.8329   11.7137   10.1788 H     741  UNL741      0.1146
   2964 H          27.5948   12.3270    8.6901 H     741  UNL741      0.1146
   2965 N          26.2375   12.7515   11.8014 N.3   742  UNL742     -0.3437
   2966 H          27.1997   13.0421   11.6340 H     742  UNL742      0.1146
   2967 H          25.6505   13.4411   11.3343 H     742  UNL742      0.1146
   2968 H          26.1131   11.8814   11.2859 H     742  UNL742      0.1146
   2969 N          27.4757   12.8244   13.8600 N.3   743  UNL743     -0.3437
   2970 H          27.6355   11.9210   13.4165 H     743  UNL743      0.1146
   2971 H          27.6038   13.5227   13.1291 H     743  UNL743      0.1146
   2972 H          26.4858   12.8480   14.1006 H     743  UNL743      0.1146
   2973 N          27.1073   11.9736   15.8502 N.3   744  UNL744     -0.3437
   2974 H          26.6656   11.1018   15.5617 H     744  UNL744      0.1146
   2975 H          27.8329   11.7137   16.5168 H     744  UNL744      0.1146
   2976 H          27.5948   12.3270   15.0281 H     744  UNL744      0.1146
   2977 N          26.5937   12.7515   18.8304 N.3   745  UNL745     -0.3437
   2978 H          26.1602   13.0421   17.9552 H     745  UNL745      0.1146
   2979 H          26.3123   13.4411   19.5259 H     745  UNL745      0.1146
   2980 H          26.1346   11.8814   19.0960 H     745  UNL745      0.1146
@<TRIPOS>BOND
     1     1     2    1
     2     1     3    1
     3     1     4    1
     4     5     6    1
     5     5     7    1
     6     5     8    1
     7     9    10    1
     8     9    11    1
     9     9    12    1
    10    13    14    1
    11    13    15    1
    12    13    16    1
    13    17    18    1
    14    17    19    1
    15    17    20    1
    16    21    22    1
    17    21    23    1
    18    21    24    1
    19    25    26    1
    20    25    27    1
    21    25    28    1
    22    29    30    1
    23    29    31    1
    24    29    32    1
    25    33    34    1
    26    33    35    1
    27    33    36    1
    28    37    38    1
    29    37    39    1
    30    37    40    1
    31    41    42    1
    32    41    43    1
    33    41    44    1
    34    45    46    1
    35    45    47    1
    36    45    48    1
    37    49    50    1
    38    49    51    1
    39    49    52    1
    40    53    54    1
    41    53    55    1
    42    53    56    1
    43    57    58    1
    44    57    59    1
    45    57    60    1
    46    61    62    1
    47    61    63    1
    48    61    64    1
    49    65    66    1
    50    65    67    1
    51    65    68    1
    52    69    70    1
    53    69    71    1
    54    69    72    1
    55    73    74    1
    56    73    75    1
    57    73    76    1
    58    77    78    1
    59    77    79    1
    60    77    80    1
    61    81    82    1
    62    81    83    1
    63    81    84    1
    64    85    86    1
    65    85    87    1
    66    85    88    1
    67    89    90    1
    68    89    91    1
    69    89    92    1
    70    93    94    1
    71    93    95    1
    72    93    96    1
    73    97    98    1
    74    97    99    1
    75    97   100    1
    76   101   102    1
    77   101   103    1
    78   101   104    1
    79   105   106    1
    80   105   107    1
    81   105   108    1
    82   109   110    1
    83   109   111    1
    84   109   112    1
    85   113   114    1
    86   113   115    1
    87   113   116    1
    88   117   118    1
    89   117   119    1
    90   117   120    1
    91   121   122    1
    92   121   123    1
    93   121   124    1
    94   125   126    1
    95   125   127    1
    96   125   128    1
    97   129   130    1
    98   129   131    1
    99   129   132    1
   100   133   134    1
   101   133   135    1
   102   133   136    1
   103   137   138    1
   104   137   139    1
   105   137   140    1
   106   141   142    1
   107   141   143    1
   108   141   144    1
   109   145   146    1
   110   145   147    1
   111   145   148    1
   112   149   150    1
   113   149   151    1
   114   149   152    1
   115   153   154    1
   116   153   155    1
   117   153   156    1
   118   157   158    1
   119   157   159    1
   120   157   160    1
   121   161   162    1
   122   161   163    1
   123   161   164    1
   124   165   166    1
   125   165   167    1
   126   165   168    1
   127   169   170    1
   128   169   171    1
   129   169   172    1
   130   173   174    1
   131   173   175    1
   132   173   176    1
   133   177   178    1
   134   177   179    1
   135   177   180    1
   136   181   182    1
   137   181   183    1
   138   181   184    1
   139   185   186    1
   140   185   187    1
   141   185   188    1
   142   189   190    1
   143   189   191    1
   144   189   192    1
   145   193   194    1
   146   193   195    1
   147   193   196    1
   148   197   198    1
   149   197   199    1
   150   197   200    1
   151   201   202    1
   152   201   203    1
   153   201   204    1
   154   205   206    1
   155   205   207    1
   156   205   208    1
   157   209   210    1
   158   209   211    1
   159   209   212    1
   160   213   214    1
   161   213   215    1
   162   213   216    1
   163   217   218    1
   164   217   219    1
   165   217   220    1
   166   221   222    1
   167   221   223    1
   168   221   224    1
   169   225   226    1
   170   225   227    1
   171   225   228    1
   172   229   230    1
   173   229   231    1
   174   229   232    1
   175   233   234    1
   176   233   235    1
   177   233   236    1
   178   237   238    1
   179   237   239    1
   180   237   240    1
   181   241   242    1
   182   241   243    1
   183   241   244    1
   184   245   246    1
   185   245   247    1
   186   245   248    1
   187   249   250    1
   188   249   251    1
   189   249   252    1
   190   253   254    1
   191   253   255    1
   192   253   256    1
   193   257   258    1
   194   257   259    1
   195   257   260    1
   196   261   262    1
   197   261   263    1
   198   261   264    1
   199   265   266    1
   200   265   267    1
   201   265   268    1
   202   269   270    1
   203   269   271    1
   204   269   272    1
   205   273   274    1
   206   273   275    1
   207   273   276    1
   208   277   278    1
   209   277   279    1
   210   277   280    1
   211   281   282    1
   212   281   283    1
   213   281   284    1
   214   285   286    1
   215   285   287    1
   216   285   288    1
   217   289   290    1
   218   289   291    1
   219   289   292    1
   220   293   294    1
   221   293   295    1
   222   293   296    1
   223   297   298    1
   224   297   299    1
   225   297   300    1
   226   301   302    1
   227   301   303    1
   228   301   304    1
   229   305   306    1
   230   305   307    1
   231   305   308    1
   232   309   310    1
   233   309   311    1
   234   309   312    1
   235   313   314    1
   236   313   315    1
   237   313   316    1
   238   317   318    1
   239   317   319    1
   240   317   320    1
   241   321   322    1
   242   321   323    1
   243   321   324    1
   244   325   326    1
   245   325   327    1
   246   325   328    1
   247   329   330    1
   248   329   331    1
   249   329   332    1
   250   333   334    1
   251   333   335    1
   252   333   336    1
   253   337   338    1
   254   337   339    1
   255   337   340    1
   256   341   342    1
   257   341   343    1
   258   341   344    1
   259   345   346    1
   260   345   347    1
   261   345   348    1
   262   349   350    1
   263   349   351    1
   264   349   352    1
   265   353   354    1
   266   353   355    1
   267   353   356    1
   268   357   358    1
   269   357   359    1
   270   357   360    1
   271   361   362    1
   272   361   363    1
   273   361   364    1
   274   365   366    1
   275   365   367    1
   276   365   368    1
   277   369   370    1
   278   369   371    1
   279   369   372    1
   280   373   374    1
   281   373   375    1
   282   373   376    1
   283   377   378    1
   284   377   379    1
   285   377   380    1
   286   381   382    1
   287   381   383    1
   288   381   384    1
   289   385   386    1
   290   385   387    1
   291   385   388    1
   292   389   390    1
   293   389   391    1
   294   389   392    1
   295   393   394    1
   296   393   395    1
   297   393   396    1
   298   397   398    1
   299   397   399    1
   300   397   400    1
   301   401   402    1
   302   401   403    1
   303   401   404    1
   304   405   406    1
   305   405   407    1
   306   405   408    1
   307   409   410    1
   308   409   411    1
   309   409   412    1
   310   413   414    1
   311   413   415    1
   312   413   416    1
   313   417   418    1
   314   417   419    1
   315   417   420    1
   316   421   422    1
   317   421   423    1
   318   421   424    1
   319   425   426    1
   320   425   427    1
   321   425   428    1
   322   429   430    1
   323   429   431    1
   324   429   432    1
   325   433   434    1
   326   433   435    1
   327   433   436    1
   328   437   438    1
   329   437   439    1
   330   437   440    1
   331   441   442    1
   332   441   443    1
   333   441   444    1
   334   445   446    1
   335   445   447    1
   336   445   448    1
   337   449   450    1
   338   449   451    1
   339   449   452    1
   340   453   454    1
   341   453   455    1
   342   453   456    1
   343   457   458    1
   344   457   459    1
   345   457   460    1
   346   461   462    1
   347   461   463    1
   348   461   464    1
   349   465   466    1
   350   465   467    1
   351   465   468    1
   352   469   470    1
   353   469   471    1
   354   469   472    1
   355   473   474    1
   356   473   475    1
   357   473   476    1
   358   477   478    1
   359   477   479    1
   360   477   480    1
   361   481   482    1
   362   481   483    1
   363   481   484    1
   364   485   486    1
   365   485   487    1
   366   485   488    1
   367   489   490    1
   368   489   491    1
   369   489   492    1
   370   493   494    1
   371   493   495    1
   372   493   496    1
   373   497   498    1
   374   497   499    1
   375   497   500    1
   376   501   502    1
   377   501   503    1
   378   501   504    1
   379   505   506    1
   380   505   507    1
   381   505   508    1
   382   509   510    1
   383   509   511    1
   384   509   512    1
   385   513   514    1
   386   513   515    1
   387   513   516    1
   388   517   518    1
   389   517   519    1
   390   517   520    1
   391   521   522    1
   392   521   523    1
   393   521   524    1
   394   525   526    1
   395   525   527    1
   396   525   528    1
   397   529   530    1
   398   529   531    1
   399   529   532    1
   400   533   534    1
   401   533   535    1
   402   533   536    1
   403   537   538    1
   404   537   539    1
   405   537   540    1
   406   541   542    1
   407   541   543    1
   408   541   544    1
   409   545   546    1
   410   545   547    1
   411   545   548    1
   412   549   550    1
   413   549   551    1
   414   549   552    1
   415   553   554    1
   416   553   555    1
   417   553   556    1
   418   557   558    1
   419   557   559    1
   420   557   560    1
   421   561   562    1
   422   561   563    1
   423   561   564    1
   424   565   566    1
   425   565   567    1
   426   565   568    1
   427   569   570    1
   428   569   571    1
   429   569   572    1
   430   573   574    1
   431   573   575    1
   432   573   576    1
   433   577   578    1
   434   577   579    1
   435   577   580    1
   436   581   582    1
   437   581   583    1
   438   581   584    1
   439   585   586    1
   440   585   587    1
   441   585   588    1
   442   589   590    1
   443   589   591    1
   444   589   592    1
   445   593   594    1
   446   593   595    1
   447   593   596    1
   448   597   598    1
   449   597   599    1
   450   597   600    1
   451   601   602    1
   452   601   603    1
   453   601   604    1
   454   605   606    1
   455   605   607    1
   456   605   608    1
   457   609   610    1
   458   609   611    1
   459   609   612    1
   460   613   614    1
   461   613   615    1
   462   613   616    1
   463   617   618    1
   464   617   619    1
   465   617   620    1
   466   621   622    1
   467   621   623    1
   468   621   624    1
   469   625   626    1
   470   625   627    1
   471   625   628    1
   472   629   630    1
   473   629   631    1
   474   629   632    1
   475   633   634    1
   476   633   635    1
   477   633   636    1
   478   637   638    1
   479   637   639    1
   480   637   640    1
   481   641   642    1
   482   641   643    1
   483   641   644    1
   484   645   646    1
   485   645   647    1
   486   645   648    1
   487   649   650    1
   488   649   651    1
   489   649   652    1
   490   653   654    1
   491   653   655    1
   492   653   656    1
   493   657   658    1
   494   657   659    1
   495   657   660    1
   496   661   662    1
   497   661   663    1
   498   661   664    1
   499   665   666    1
   500   665   667    1
   501   665   668    1
   502   669   670    1
   503   669   671    1
   504   669   672    1
   505   673   674    1
   506   673   675    1
   507   673   676    1
   508   677   678    1
   509   677   679    1
   510   677   680    1
   511   681   682    1
   512   681   683    1
   513   681   684    1
   514   685   686    1
   515   685   687    1
   516   685   688    1
   517   689   690    1
   518   689   691    1
   519   689   692    1
   520   693   694    1
   521   693   695    1
   522   693   696    1
   523   697   698    1
   524   697   699    1
   525   697   700    1
   526   701   702    1
   527   701   703    1
   528   701   704    1
   529   705   706    1
   530   705   707    1
   531   705   708    1
   532   709   710    1
   533   709   711    1
   534   709   712    1
   535   713   714    1
   536   713   715    1
   537   713   716    1
   538   717   718    1
   539   717   719    1
   540   717   720    1
   541   721   722    1
   542   721   723    1
   543   721   724    1
   544   725   726    1
   545   725   727    1
   546   725   728    1
   547   729   730    1
   548   729   731    1
   549   729   732    1
   550   733   734    1
   551   733   735    1
   552   733   736    1
   553   737   738    1
   554   737   739    1
   555   737   740    1
   556   741   742    1
   557   741   743    1
   558   741   744    1
   559   745   746    1
   560   745   747    1
   561   745   748    1
   562   749   750    1
   563   749   751    1
   564   749   752    1
   565   753   754    1
   566   753   755    1
   567   753   756    1
   568   757   758    1
   569   757   759    1
   570   757   760    1
   571   761   762    1
   572   761   763    1
   573   761   764    1
   574   765   766    1
   575   765   767    1
   576   765   768    1
   577   769   770    1
   578   769   771    1
   579   769   772    1
   580   773   774    1
   581   773   775    1
   582   773   776    1
   583   777   778    1
   584   777   779    1
   585   777   780    1
   586   781   782    1
   587   781   783    1
   588   781   784    1
   589   785   786    1
   590   785   787    1
   591   785   788    1
   592   789   790    1
   593   789   791    1
   594   789   792    1
   595   793   794    1
   596   793   795    1
   597   793   796    1
   598   797   798    1
   599   797   799    1
   600   797   800    1
   601   801   802    1
   602   801   803    1
   603   801   804    1
   604   805   806    1
   605   805   807    1
   606   805   808    1
   607   809   810    1
   608   809   811    1
   609   809   812    1
   610   813   814    1
   611   813   815    1
   612   813   816    1
   613   817   818    1
   614   817   819    1
   615   817   820    1
   616   821   822    1
   617   821   823    1
   618   821   824    1
   619   825   826    1
   620   825   827    1
   621   825   828    1
   622   829   830    1
   623   829   831    1
   624   829   832    1
   625   833   834    1
   626   833   835    1
   627   833   836    1
   628   837   838    1
   629   837   839    1
   630   837   840    1
   631   841   842    1
   632   841   843    1
   633   841   844    1
   634   845   846    1
   635   845   847    1
   636   845   848    1
   637   849   850    1
   638   849   851    1
   639   849   852    1
   640   853   854    1
   641   853   855    1
   642   853   856    1
   643   857   858    1
   644   857   859    1
   645   857   860    1
   646   861   862    1
   647   861   863    1
   648   861   864    1
   649   865   866    1
   650   865   867    1
   651   865   868    1
   652   869   870    1
   653   869   871    1
   654   869   872    1
   655   873   874    1
   656   873   875    1
   657   873   876    1
   658   877   878    1
   659   877   879    1
   660   877   880    1
   661   881   882    1
   662   881   883    1
   663   881   884    1
   664   885   886    1
   665   885   887    1
   666   885   888    1
   667   889   890    1
   668   889   891    1
   669   889   892    1
   670   893   894    1
   671   893   895    1
   672   893   896    1
   673   897   898    1
   674   897   899    1
   675   897   900    1
   676   901   902    1
   677   901   903    1
   678   901   904    1
   679   905   906    1
   680   905   907    1
   681   905   908    1
   682   909   910    1
   683   909   911    1
   684   909   912    1
   685   913   914    1
   686   913   915    1
   687   913   916    1
   688   917   918    1
   689   917   919    1
   690   917   920    1
   691   921   922    1
   692   921   923    1
   693   921   924    1
   694   925   926    1
   695   925   927    1
   696   925   928    1
   697   929   930    1
   698   929   931    1
   699   929   932    1
   700   933   934    1
   701   933   935    1
   702   933   936    1
   703   937   938    1
   704   937   939    1
   705   937   940    1
   706   941   942    1
   707   941   943    1
   708   941   944    1
   709   945   946    1
   710   945   947    1
   711   945   948    1
   712   949   950    1
   713   949   951    1
   714   949   952    1
   715   953   954    1
   716   953   955    1
   717   953   956    1
   718   957   958    1
   719   957   959    1
   720   957   960    1
   721   961   962    1
   722   961   963    1
   723   961   964    1
   724   965   966    1
   725   965   967    1
   726   965   968    1
   727   969   970    1
   728   969   971    1
   729   969   972    1
   730   973   974    1
   731   973   975    1
   732   973   976    1
   733   977   978    1
   734   977   979    1
   735   977   980    1
   736   981   982    1
   737   981   983    1
   738   981   984    1
   739   985   986    1
   740   985   987    1
   741   985   988    1
   742   989   990    1
   743   989   991    1
   744   989   992    1
   745   993   994    1
   746   993   995    1
   747   993   996    1
   748   997   998    1
   749   997   999    1
   750   997  1000    1
   751  1001  1002    1
   752  1001  1003    1
   753  1001  1004    1
   754  1005  1006    1
   755  1005  1007    1
   756  1005  1008    1
   757  1009  1010    1
   758  1009  1011    1
   759  1009  1012    1
   760  1013  1014    1
   761  1013  1015    1
   762  1013  1016    1
   763  1017  1018    1
   764  1017  1019    1
   765  1017  1020    1
   766  1021  1022    1
   767  1021  1023    1
   768  1021  1024    1
   769  1025  1026    1
   770  1025  1027    1
   771  1025  1028    1
   772  1029  1030    1
   773  1029  1031    1
   774  1029  1032    1
   775  1033  1034    1
   776  1033  1035    1
   777  1033  1036    1
   778  1037  1038    1
   779  1037  1039    1
   780  1037  1040    1
   781  1041  1042    1
   782  1041  1043    1
   783  1041  1044    1
   784  1045  1046    1
   785  1045  1047    1
   786  1045  1048    1
   787  1049  1050    1
   788  1049  1051    1
   789  1049  1052    1
   790  1053  1054    1
   791  1053  1055    1
   792  1053  1056    1
   793  1057  1058    1
   794  1057  1059    1
   795  1057  1060    1
   796  1061  1062    1
   797  1061  1063    1
   798  1061  1064    1
   799  1065  1066    1
   800  1065  1067    1
   801  1065  1068    1
   802  1069  1070    1
   803  1069  1071    1
   804  1069  1072    1
   805  1073  1074    1
   806  1073  1075    1
   807  1073  1076    1
   808  1077  1078    1
   809  1077  1079    1
   810  1077  1080    1
   811  1081  1082    1
   812  1081  1083    1
   813  1081  1084    1
   814  1085  1086    1
   815  1085  1087    1
   816  1085  1088    1
   817  1089  1090    1
   818  1089  1091    1
   819  1089  1092    1
   820  1093  1094    1
   821  1093  1095    1
   822  1093  1096    1
   823  1097  1098    1
   824  1097  1099    1
   825  1097  1100    1
   826  1101  1102    1
   827  1101  1103    1
   828  1101  1104    1
   829  1105  1106    1
   830  1105  1107    1
   831  1105  1108    1
   832  1109  1110    1
   833  1109  1111    1
   834  1109  1112    1
   835  1113  1114    1
   836  1113  1115    1
   837  1113  1116    1
   838  1117  1118    1
   839  1117  1119    1
   840  1117  1120    1
   841  1121  1122    1
   842  1121  1123    1
   843  1121  1124    1
   844  1125  1126    1
   845  1125  1127    1
   846  1125  1128    1
   847  1129  1130    1
   848  1129  1131    1
   849  1129  1132    1
   850  1133  1134    1
   851  1133  1135    1
   852  1133  1136    1
   853  1137  1138    1
   854  1137  1139    1
   855  1137  1140    1
   856  1141  1142    1
   857  1141  1143    1
   858  1141  1144    1
   859  1145  1146    1
   860  1145  1147    1
   861  1145  1148    1
   862  1149  1150    1
   863  1149  1151    1
   864  1149  1152    1
   865  1153  1154    1
   866  1153  1155    1
   867  1153  1156    1
   868  1157  1158    1
   869  1157  1159    1
   870  1157  1160    1
   871  1161  1162    1
   872  1161  1163    1
   873  1161  1164    1
   874  1165  1166    1
   875  1165  1167    1
   876  1165  1168    1
   877  1169  1170    1
   878  1169  1171    1
   879  1169  1172    1
   880  1173  1174    1
   881  1173  1175    1
   882  1173  1176    1
   883  1177  1178    1
   884  1177  1179    1
   885  1177  1180    1
   886  1181  1182    1
   887  1181  1183    1
   888  1181  1184    1
   889  1185  1186    1
   890  1185  1187    1
   891  1185  1188    1
   892  1189  1190    1
   893  1189  1191    1
   894  1189  1192    1
   895  1193  1194    1
   896  1193  1195    1
   897  1193  1196    1
   898  1197  1198    1
   899  1197  1199    1
   900  1197  1200    1
   901  1201  1202    1
   902  1201  1203    1
   903  1201  1204    1
   904  1205  1206    1
   905  1205  1207    1
   906  1205  1208    1
   907  1209  1210    1
   908  1209  1211    1
   909  1209  1212    1
   910  1213  1214    1
   911  1213  1215    1
   912  1213  1216    1
   913  1217  1218    1
   914  1217  1219    1
   915  1217  1220    1
   916  1221  1222    1
   917  1221  1223    1
   918  1221  1224    1
   919  1225  1226    1
   920  1225  1227    1
   921  1225  1228    1
   922  1229  1230    1
   923  1229  1231    1
   924  1229  1232    1
   925  1233  1234    1
   926  1233  1235    1
   927  1233  1236    1
   928  1237  1238    1
   929  1237  1239    1
   930  1237  1240    1
   931  1241  1242    1
   932  1241  1243    1
   933  1241  1244    1
   934  1245  1246    1
   935  1245  1247    1
   936  1245  1248    1
   937  1249  1250    1
   938  1249  1251    1
   939  1249  1252    1
   940  1253  1254    1
   941  1253  1255    1
   942  1253  1256    1
   943  1257  1258    1
   944  1257  1259    1
   945  1257  1260    1
   946  1261  1262    1
   947  1261  1263    1
   948  1261  1264    1
   949  1265  1266    1
   950  1265  1267    1
   951  1265  1268    1
   952  1269  1270    1
   953  1269  1271    1
   954  1269  1272    1
   955  1273  1274    1
   956  1273  1275    1
   957  1273  1276    1
   958  1277  1278    1
   959  1277  1279    1
   960  1277  1280    1
   961  1281  1282    1
   962  1281  1283    1
   963  1281  1284    1
   964  1285  1286    1
   965  1285  1287    1
   966  1285  1288    1
   967  1289  1290    1
   968  1289  1291    1
   969  1289  1292    1
   970  1293  1294    1
   971  1293  1295    1
   972  1293  1296    1
   973  1297  1298    1
   974  1297  1299    1
   975  1297  1300    1
   976  1301  1302    1
   977  1301  1303    1
   978  1301  1304    1
   979  1305  1306    1
   980  1305  1307    1
   981  1305  1308    1
   982  1309  1310    1
   983  1309  1311    1
   984  1309  1312    1
   985  1313  1314    1
   986  1313  1315    1
   987  1313  1316    1
   988  1317  1318    1
   989  1317  1319    1
   990  1317  1320    1
   991  1321  1322    1
   992  1321  1323    1
   993  1321  1324    1
   994  1325  1326    1
   995  1325  1327    1
   996  1325  1328    1
   997  1329  1330    1
   998  1329  1331    1
   999  1329  1332    1
  1000  1333  1334    1
  1001  1333  1335    1
  1002  1333  1336    1
  1003  1337  1338    1
  1004  1337  1339    1
  1005  1337  1340    1
  1006  1341  1342    1
  1007  1341  1343    1
  1008  1341  1344    1
  1009  1345  1346    1
  1010  1345  1347    1
  1011  1345  1348    1
  1012  1349  1350    1
  1013  1349  1351    1
  1014  1349  1352    1
  1015  1353  1354    1
  1016  1353  1355    1
  1017  1353  1356    1
  1018  1357  1358    1
  1019  1357  1359    1
  1020  1357  1360    1
  1021  1361  1362    1
  1022  1361  1363    1
  1023  1361  1364    1
  1024  1365  1366    1
  1025  1365  1367    1
  1026  1365  1368    1
  1027  1369  1370    1
  1028  1369  1371    1
  1029  1369  1372    1
  1030  1373  1374    1
  1031  1373  1375    1
  1032  1373  1376    1
  1033  1377  1378    1
  1034  1377  1379    1
  1035  1377  1380    1
  1036  1381  1382    1
  1037  1381  1383    1
  1038  1381  1384    1
  1039  1385  1386    1
  1040  1385  1387    1
  1041  1385  1388    1
  1042  1389  1390    1
  1043  1389  1391    1
  1044  1389  1392    1
  1045  1393  1394    1
  1046  1393  1395    1
  1047  1393  1396    1
  1048  1397  1398    1
  1049  1397  1399    1
  1050  1397  1400    1
  1051  1401  1402    1
  1052  1401  1403    1
  1053  1401  1404    1
  1054  1405  1406    1
  1055  1405  1407    1
  1056  1405  1408    1
  1057  1409  1410    1
  1058  1409  1411    1
  1059  1409  1412    1
  1060  1413  1414    1
  1061  1413  1415    1
  1062  1413  1416    1
  1063  1417  1418    1
  1064  1417  1419    1
  1065  1417  1420    1
  1066  1421  1422    1
  1067  1421  1423    1
  1068  1421  1424    1
  1069  1425  1426    1
  1070  1425  1427    1
  1071  1425  1428    1
  1072  1429  1430    1
  1073  1429  1431    1
  1074  1429  1432    1
  1075  1433  1434    1
  1076  1433  1435    1
  1077  1433  1436    1
  1078  1437  1438    1
  1079  1437  1439    1
  1080  1437  1440    1
  1081  1441  1442    1
  1082  1441  1443    1
  1083  1441  1444    1
  1084  1445  1446    1
  1085  1445  1447    1
  1086  1445  1448    1
  1087  1449  1450    1
  1088  1449  1451    1
  1089  1449  1452    1
  1090  1453  1454    1
  1091  1453  1455    1
  1092  1453  1456    1
  1093  1457  1458    1
  1094  1457  1459    1
  1095  1457  1460    1
  1096  1461  1462    1
  1097  1461  1463    1
  1098  1461  1464    1
  1099  1465  1466    1
  1100  1465  1467    1
  1101  1465  1468    1
  1102  1469  1470    1
  1103  1469  1471    1
  1104  1469  1472    1
  1105  1473  1474    1
  1106  1473  1475    1
  1107  1473  1476    1
  1108  1477  1478    1
  1109  1477  1479    1
  1110  1477  1480    1
  1111  1481  1482    1
  1112  1481  1483    1
  1113  1481  1484    1
  1114  1485  1486    1
  1115  1485  1487    1
  1116  1485  1488    1
  1117  1489  1490    1
  1118  1489  1491    1
  1119  1489  1492    1
  1120  1493  1494    1
  1121  1493  1495    1
  1122  1493  1496    1
  1123  1497  1498    1
  1124  1497  1499    1
  1125  1497  1500    1
  1126  1501  1502    1
  1127  1501  1503    1
  1128  1501  1504    1
  1129  1505  1506    1
  1130  1505  1507    1
  1131  1505  1508    1
  1132  1509  1510    1
  1133  1509  1511    1
  1134  1509  1512    1
  1135  1513  1514    1
  1136  1513  1515    1
  1137  1513  1516    1
  1138  1517  1518    1
  1139  1517  1519    1
  1140  1517  1520    1
  1141  1521  1522    1
  1142  1521  1523    1
  1143  1521  1524    1
  1144  1525  1526    1
  1145  1525  1527    1
  1146  1525  1528    1
  1147  1529  1530    1
  1148  1529  1531    1
  1149  1529  1532    1
  1150  1533  1534    1
  1151  1533  1535    1
  1152  1533  1536    1
  1153  1537  1538    1
  1154  1537  1539    1
  1155  1537  1540    1
  1156  1541  1542    1
  1157  1541  1543    1
  1158  1541  1544    1
  1159  1545  1546    1
  1160  1545  1547    1
  1161  1545  1548    1
  1162  1549  1550    1
  1163  1549  1551    1
  1164  1549  1552    1
  1165  1553  1554    1
  1166  1553  1555    1
  1167  1553  1556    1
  1168  1557  1558    1
  1169  1557  1559    1
  1170  1557  1560    1
  1171  1561  1562    1
  1172  1561  1563    1
  1173  1561  1564    1
  1174  1565  1566    1
  1175  1565  1567    1
  1176  1565  1568    1
  1177  1569  1570    1
  1178  1569  1571    1
  1179  1569  1572    1
  1180  1573  1574    1
  1181  1573  1575    1
  1182  1573  1576    1
  1183  1577  1578    1
  1184  1577  1579    1
  1185  1577  1580    1
  1186  1581  1582    1
  1187  1581  1583    1
  1188  1581  1584    1
  1189  1585  1586    1
  1190  1585  1587    1
  1191  1585  1588    1
  1192  1589  1590    1
  1193  1589  1591    1
  1194  1589  1592    1
  1195  1593  1594    1
  1196  1593  1595    1
  1197  1593  1596    1
  1198  1597  1598    1
  1199  1597  1599    1
  1200  1597  1600    1
  1201  1601  1602    1
  1202  1601  1603    1
  1203  1601  1604    1
  1204  1605  1606    1
  1205  1605  1607    1
  1206  1605  1608    1
  1207  1609  1610    1
  1208  1609  1611    1
  1209  1609  1612    1
  1210  1613  1614    1
  1211  1613  1615    1
  1212  1613  1616    1
  1213  1617  1618    1
  1214  1617  1619    1
  1215  1617  1620    1
  1216  1621  1622    1
  1217  1621  1623    1
  1218  1621  1624    1
  1219  1625  1626    1
  1220  1625  1627    1
  1221  1625  1628    1
  1222  1629  1630    1
  1223  1629  1631    1
  1224  1629  1632    1
  1225  1633  1634    1
  1226  1633  1635    1
  1227  1633  1636    1
  1228  1637  1638    1
  1229  1637  1639    1
  1230  1637  1640    1
  1231  1641  1642    1
  1232  1641  1643    1
  1233  1641  1644    1
  1234  1645  1646    1
  1235  1645  1647    1
  1236  1645  1648    1
  1237  1649  1650    1
  1238  1649  1651    1
  1239  1649  1652    1
  1240  1653  1654    1
  1241  1653  1655    1
  1242  1653  1656    1
  1243  1657  1658    1
  1244  1657  1659    1
  1245  1657  1660    1
  1246  1661  1662    1
  1247  1661  1663    1
  1248  1661  1664    1
  1249  1665  1666    1
  1250  1665  1667    1
  1251  1665  1668    1
  1252  1669  1670    1
  1253  1669  1671    1
  1254  1669  1672    1
  1255  1673  1674    1
  1256  1673  1675    1
  1257  1673  1676    1
  1258  1677  1678    1
  1259  1677  1679    1
  1260  1677  1680    1
  1261  1681  1682    1
  1262  1681  1683    1
  1263  1681  1684    1
  1264  1685  1686    1
  1265  1685  1687    1
  1266  1685  1688    1
  1267  1689  1690    1
  1268  1689  1691    1
  1269  1689  1692    1
  1270  1693  1694    1
  1271  1693  1695    1
  1272  1693  1696    1
  1273  1697  1698    1
  1274  1697  1699    1
  1275  1697  1700    1
  1276  1701  1702    1
  1277  1701  1703    1
  1278  1701  1704    1
  1279  1705  1706    1
  1280  1705  1707    1
  1281  1705  1708    1
  1282  1709  1710    1
  1283  1709  1711    1
  1284  1709  1712    1
  1285  1713  1714    1
  1286  1713  1715    1
  1287  1713  1716    1
  1288  1717  1718    1
  1289  1717  1719    1
  1290  1717  1720    1
  1291  1721  1722    1
  1292  1721  1723    1
  1293  1721  1724    1
  1294  1725  1726    1
  1295  1725  1727    1
  1296  1725  1728    1
  1297  1729  1730    1
  1298  1729  1731    1
  1299  1729  1732    1
  1300  1733  1734    1
  1301  1733  1735    1
  1302  1733  1736    1
  1303  1737  1738    1
  1304  1737  1739    1
  1305  1737  1740    1
  1306  1741  1742    1
  1307  1741  1743    1
  1308  1741  1744    1
  1309  1745  1746    1
  1310  1745  1747    1
  1311  1745  1748    1
  1312  1749  1750    1
  1313  1749  1751    1
  1314  1749  1752    1
  1315  1753  1754    1
  1316  1753  1755    1
  1317  1753  1756    1
  1318  1757  1758    1
  1319  1757  1759    1
  1320  1757  1760    1
  1321  1761  1762    1
  1322  1761  1763    1
  1323  1761  1764    1
  1324  1765  1766    1
  1325  1765  1767    1
  1326  1765  1768    1
  1327  1769  1770    1
  1328  1769  1771    1
  1329  1769  1772    1
  1330  1773  1774    1
  1331  1773  1775    1
  1332  1773  1776    1
  1333  1777  1778    1
  1334  1777  1779    1
  1335  1777  1780    1
  1336  1781  1782    1
  1337  1781  1783    1
  1338  1781  1784    1
  1339  1785  1786    1
  1340  1785  1787    1
  1341  1785  1788    1
  1342  1789  1790    1
  1343  1789  1791    1
  1344  1789  1792    1
  1345  1793  1794    1
  1346  1793  1795    1
  1347  1793  1796    1
  1348  1797  1798    1
  1349  1797  1799    1
  1350  1797  1800    1
  1351  1801  1802    1
  1352  1801  1803    1
  1353  1801  1804    1
  1354  1805  1806    1
  1355  1805  1807    1
  1356  1805  1808    1
  1357  1809  1810    1
  1358  1809  1811    1
  1359  1809  1812    1
  1360  1813  1814    1
  1361  1813  1815    1
  1362  1813  1816    1
  1363  1817  1818    1
  1364  1817  1819    1
  1365  1817  1820    1
  1366  1821  1822    1
  1367  1821  1823    1
  1368  1821  1824    1
  1369  1825  1826    1
  1370  1825  1827    1
  1371  1825  1828    1
  1372  1829  1830    1
  1373  1829  1831    1
  1374  1829  1832    1
  1375  1833  1834    1
  1376  1833  1835    1
  1377  1833  1836    1
  1378  1837  1838    1
  1379  1837  1839    1
  1380  1837  1840    1
  1381  1841  1842    1
  1382  1841  1843    1
  1383  1841  1844    1
  1384  1845  1846    1
  1385  1845  1847    1
  1386  1845  1848    1
  1387  1849  1850    1
  1388  1849  1851    1
  1389  1849  1852    1
  1390  1853  1854    1
  1391  1853  1855    1
  1392  1853  1856    1
  1393  1857  1858    1
  1394  1857  1859    1
  1395  1857  1860    1
  1396  1861  1862    1
  1397  1861  1863    1
  1398  1861  1864    1
  1399  1865  1866    1
  1400  1865  1867    1
  1401  1865  1868    1
  1402  1869  1870    1
  1403  1869  1871    1
  1404  1869  1872    1
  1405  1873  1874    1
  1406  1873  1875    1
  1407  1873  1876    1
  1408  1877  1878    1
  1409  1877  1879    1
  1410  1877  1880    1
  1411  1881  1882    1
  1412  1881  1883    1
  1413  1881  1884    1
  1414  1885  1886    1
  1415  1885  1887    1
  1416  1885  1888    1
  1417  1889  1890    1
  1418  1889  1891    1
  1419  1889  1892    1
  1420  1893  1894    1
  1421  1893  1895    1
  1422  1893  1896    1
  1423  1897  1898    1
  1424  1897  1899    1
  1425  1897  1900    1
  1426  1901  1902    1
  1427  1901  1903    1
  1428  1901  1904    1
  1429  1905  1906    1
  1430  1905  1907    1
  1431  1905  1908    1
  1432  1909  1910    1
  1433  1909  1911    1
  1434  1909  1912    1
  1435  1913  1914    1
  1436  1913  1915    1
  1437  1913  1916    1
  1438  1917  1918    1
  1439  1917  1919    1
  1440  1917  1920    1
  1441  1921  1922    1
  1442  1921  1923    1
  1443  1921  1924    1
  1444  1925  1926    1
  1445  1925  1927    1
  1446  1925  1928    1
  1447  1929  1930    1
  1448  1929  1931    1
  1449  1929  1932    1
  1450  1933  1934    1
  1451  1933  1935    1
  1452  1933  1936    1
  1453  1937  1938    1
  1454  1937  1939    1
  1455  1937  1940    1
  1456  1941  1942    1
  1457  1941  1943    1
  1458  1941  1944    1
  1459  1945  1946    1
  1460  1945  1947    1
  1461  1945  1948    1
  1462  1949  1950    1
  1463  1949  1951    1
  1464  1949  1952    1
  1465  1953  1954    1
  1466  1953  1955    1
  1467  1953  1956    1
  1468  1957  1958    1
  1469  1957  1959    1
  1470  1957  1960    1
  1471  1961  1962    1
  1472  1961  1963    1
  1473  1961  1964    1
  1474  1965  1966    1
  1475  1965  1967    1
  1476  1965  1968    1
  1477  1969  1970    1
  1478  1969  1971    1
  1479  1969  1972    1
  1480  1973  1974    1
  1481  1973  1975    1
  1482  1973  1976    1
  1483  1977  1978    1
  1484  1977  1979    1
  1485  1977  1980    1
  1486  1981  1982    1
  1487  1981  1983    1
  1488  1981  1984    1
  1489  1985  1986    1
  1490  1985  1987    1
  1491  1985  1988    1
  1492  1989  1990    1
  1493  1989  1991    1
  1494  1989  1992    1
  1495  1993  1994    1
  1496  1993  1995    1
  1497  1993  1996    1
  1498  1997  1998    1
  1499  1997  1999    1
  1500  1997  2000    1
  1501  2001  2002    1
  1502  2001  2003    1
  1503  2001  2004    1
  1504  2005  2006    1
  1505  2005  2007    1
  1506  2005  2008    1
  1507  2009  2010    1
  1508  2009  2011    1
  1509  2009  2012    1
  1510  2013  2014    1
  1511  2013  2015    1
  1512  2013  2016    1
  1513  2017  2018    1
  1514  2017  2019    1
  1515  2017  2020    1
  1516  2021  2022    1
  1517  2021  2023    1
  1518  2021  2024    1
  1519  2025  2026    1
  1520  2025  2027    1
  1521  2025  2028    1
  1522  2029  2030    1
  1523  2029  2031    1
  1524  2029  2032    1
  1525  2033  2034    1
  1526  2033  2035    1
  1527  2033  2036    1
  1528  2037  2038    1
  1529  2037  2039    1
  1530  2037  2040    1
  1531  2041  2042    1
  1532  2041  2043    1
  1533  2041  2044    1
  1534  2045  2046    1
  1535  2045  2047    1
  1536  2045  2048    1
  1537  2049  2050    1
  1538  2049  2051    1
  1539  2049  2052    1
  1540  2053  2054    1
  1541  2053  2055    1
  1542  2053  2056    1
  1543  2057  2058    1
  1544  2057  2059    1
  1545  2057  2060    1
  1546  2061  2062    1
  1547  2061  2063    1
  1548  2061  2064    1
  1549  2065  2066    1
  1550  2065  2067    1
  1551  2065  2068    1
  1552  2069  2070    1
  1553  2069  2071    1
  1554  2069  2072    1
  1555  2073  2074    1
  1556  2073  2075    1
  1557  2073  2076    1
  1558  2077  2078    1
  1559  2077  2079    1
  1560  2077  2080    1
  1561  2081  2082    1
  1562  2081  2083    1
  1563  2081  2084    1
  1564  2085  2086    1
  1565  2085  2087    1
  1566  2085  2088    1
  1567  2089  2090    1
  1568  2089  2091    1
  1569  2089  2092    1
  1570  2093  2094    1
  1571  2093  2095    1
  1572  2093  2096    1
  1573  2097  2098    1
  1574  2097  2099    1
  1575  2097  2100    1
  1576  2101  2102    1
  1577  2101  2103    1
  1578  2101  2104    1
  1579  2105  2106    1
  1580  2105  2107    1
  1581  2105  2108    1
  1582  2109  2110    1
  1583  2109  2111    1
  1584  2109  2112    1
  1585  2113  2114    1
  1586  2113  2115    1
  1587  2113  2116    1
  1588  2117  2118    1
  1589  2117  2119    1
  1590  2117  2120    1
  1591  2121  2122    1
  1592  2121  2123    1
  1593  2121  2124    1
  1594  2125  2126    1
  1595  2125  2127    1
  1596  2125  2128    1
  1597  2129  2130    1
  1598  2129  2131    1
  1599  2129  2132    1
  1600  2133  2134    1
  1601  2133  2135    1
  1602  2133  2136    1
  1603  2137  2138    1
  1604  2137  2139    1
  1605  2137  2140    1
  1606  2141  2142    1
  1607  2141  2143    1
  1608  2141  2144    1
  1609  2145  2146    1
  1610  2145  2147    1
  1611  2145  2148    1
  1612  2149  2150    1
  1613  2149  2151    1
  1614  2149  2152    1
  1615  2153  2154    1
  1616  2153  2155    1
  1617  2153  2156    1
  1618  2157  2158    1
  1619  2157  2159    1
  1620  2157  2160    1
  1621  2161  2162    1
  1622  2161  2163    1
  1623  2161  2164    1
  1624  2165  2166    1
  1625  2165  2167    1
  1626  2165  2168    1
  1627  2169  2170    1
  1628  2169  2171    1
  1629  2169  2172    1
  1630  2173  2174    1
  1631  2173  2175    1
  1632  2173  2176    1
  1633  2177  2178    1
  1634  2177  2179    1
  1635  2177  2180    1
  1636  2181  2182    1
  1637  2181  2183    1
  1638  2181  2184    1
  1639  2185  2186    1
  1640  2185  2187    1
  1641  2185  2188    1
  1642  2189  2190    1
  1643  2189  2191    1
  1644  2189  2192    1
  1645  2193  2194    1
  1646  2193  2195    1
  1647  2193  2196    1
  1648  2197  2198    1
  1649  2197  2199    1
  1650  2197  2200    1
  1651  2201  2202    1
  1652  2201  2203    1
  1653  2201  2204    1
  1654  2205  2206    1
  1655  2205  2207    1
  1656  2205  2208    1
  1657  2209  2210    1
  1658  2209  2211    1
  1659  2209  2212    1
  1660  2213  2214    1
  1661  2213  2215    1
  1662  2213  2216    1
  1663  2217  2218    1
  1664  2217  2219    1
  1665  2217  2220    1
  1666  2221  2222    1
  1667  2221  2223    1
  1668  2221  2224    1
  1669  2225  2226    1
  1670  2225  2227    1
  1671  2225  2228    1
  1672  2229  2230    1
  1673  2229  2231    1
  1674  2229  2232    1
  1675  2233  2234    1
  1676  2233  2235    1
  1677  2233  2236    1
  1678  2237  2238    1
  1679  2237  2239    1
  1680  2237  2240    1
  1681  2241  2242    1
  1682  2241  2243    1
  1683  2241  2244    1
  1684  2245  2246    1
  1685  2245  2247    1
  1686  2245  2248    1
  1687  2249  2250    1
  1688  2249  2251    1
  1689  2249  2252    1
  1690  2253  2254    1
  1691  2253  2255    1
  1692  2253  2256    1
  1693  2257  2258    1
  1694  2257  2259    1
  1695  2257  2260    1
  1696  2261  2262    1
  1697  2261  2263    1
  1698  2261  2264    1
  1699  2265  2266    1
  1700  2265  2267    1
  1701  2265  2268    1
  1702  2269  2270    1
  1703  2269  2271    1
  1704  2269  2272    1
  1705  2273  2274    1
  1706  2273  2275    1
  1707  2273  2276    1
  1708  2277  2278    1
  1709  2277  2279    1
  1710  2277  2280    1
  1711  2281  2282    1
  1712  2281  2283    1
  1713  2281  2284    1
  1714  2285  2286    1
  1715  2285  2287    1
  1716  2285  2288    1
  1717  2289  2290    1
  1718  2289  2291    1
  1719  2289  2292    1
  1720  2293  2294    1
  1721  2293  2295    1
  1722  2293  2296    1
  1723  2297  2298    1
  1724  2297  2299    1
  1725  2297  2300    1
  1726  2301  2302    1
  1727  2301  2303    1
  1728  2301  2304    1
  1729  2305  2306    1
  1730  2305  2307    1
  1731  2305  2308    1
  1732  2309  2310    1
  1733  2309  2311    1
  1734  2309  2312    1
  1735  2313  2314    1
  1736  2313  2315    1
  1737  2313  2316    1
  1738  2317  2318    1
  1739  2317  2319    1
  1740  2317  2320    1
  1741  2321  2322    1
  1742  2321  2323    1
  1743  2321  2324    1
  1744  2325  2326    1
  1745  2325  2327    1
  1746  2325  2328    1
  1747  2329  2330    1
  1748  2329  2331    1
  1749  2329  2332    1
  1750  2333  2334    1
  1751  2333  2335    1
  1752  2333  2336    1
  1753  2337  2338    1
  1754  2337  2339    1
  1755  2337  2340    1
  1756  2341  2342    1
  1757  2341  2343    1
  1758  2341  2344    1
  1759  2345  2346    1
  1760  2345  2347    1
  1761  2345  2348    1
  1762  2349  2350    1
  1763  2349  2351    1
  1764  2349  2352    1
  1765  2353  2354    1
  1766  2353  2355    1
  1767  2353  2356    1
  1768  2357  2358    1
  1769  2357  2359    1
  1770  2357  2360    1
  1771  2361  2362    1
  1772  2361  2363    1
  1773  2361  2364    1
  1774  2365  2366    1
  1775  2365  2367    1
  1776  2365  2368    1
  1777  2369  2370    1
  1778  2369  2371    1
  1779  2369  2372    1
  1780  2373  2374    1
  1781  2373  2375    1
  1782  2373  2376    1
  1783  2377  2378    1
  1784  2377  2379    1
  1785  2377  2380    1
  1786  2381  2382    1
  1787  2381  2383    1
  1788  2381  2384    1
  1789  2385  2386    1
  1790  2385  2387    1
  1791  2385  2388    1
  1792  2389  2390    1
  1793  2389  2391    1
  1794  2389  2392    1
  1795  2393  2394    1
  1796  2393  2395    1
  1797  2393  2396    1
  1798  2397  2398    1
  1799  2397  2399    1
  1800  2397  2400    1
  1801  2401  2402    1
  1802  2401  2403    1
  1803  2401  2404    1
  1804  2405  2406    1
  1805  2405  2407    1
  1806  2405  2408    1
  1807  2409  2410    1
  1808  2409  2411    1
  1809  2409  2412    1
  1810  2413  2414    1
  1811  2413  2415    1
  1812  2413  2416    1
  1813  2417  2418    1
  1814  2417  2419    1
  1815  2417  2420    1
  1816  2421  2422    1
  1817  2421  2423    1
  1818  2421  2424    1
  1819  2425  2426    1
  1820  2425  2427    1
  1821  2425  2428    1
  1822  2429  2430    1
  1823  2429  2431    1
  1824  2429  2432    1
  1825  2433  2434    1
  1826  2433  2435    1
  1827  2433  2436    1
  1828  2437  2438    1
  1829  2437  2439    1
  1830  2437  2440    1
  1831  2441  2442    1
  1832  2441  2443    1
  1833  2441  2444    1
  1834  2445  2446    1
  1835  2445  2447    1
  1836  2445  2448    1
  1837  2449  2450    1
  1838  2449  2451    1
  1839  2449  2452    1
  1840  2453  2454    1
  1841  2453  2455    1
  1842  2453  2456    1
  1843  2457  2458    1
  1844  2457  2459    1
  1845  2457  2460    1
  1846  2461  2462    1
  1847  2461  2463    1
  1848  2461  2464    1
  1849  2465  2466    1
  1850  2465  2467    1
  1851  2465  2468    1
  1852  2469  2470    1
  1853  2469  2471    1
  1854  2469  2472    1
  1855  2473  2474    1
  1856  2473  2475    1
  1857  2473  2476    1
  1858  2477  2478    1
  1859  2477  2479    1
  1860  2477  2480    1
  1861  2481  2482    1
  1862  2481  2483    1
  1863  2481  2484    1
  1864  2485  2486    1
  1865  2485  2487    1
  1866  2485  2488    1
  1867  2489  2490    1
  1868  2489  2491    1
  1869  2489  2492    1
  1870  2493  2494    1
  1871  2493  2495    1
  1872  2493  2496    1
  1873  2497  2498    1
  1874  2497  2499    1
  1875  2497  2500    1
  1876  2501  2502    1
  1877  2501  2503    1
  1878  2501  2504    1
  1879  2505  2506    1
  1880  2505  2507    1
  1881  2505  2508    1
  1882  2509  2510    1
  1883  2509  2511    1
  1884  2509  2512    1
  1885  2513  2514    1
  1886  2513  2515    1
  1887  2513  2516    1
  1888  2517  2518    1
  1889  2517  2519    1
  1890  2517  2520    1
  1891  2521  2522    1
  1892  2521  2523    1
  1893  2521  2524    1
  1894  2525  2526    1
  1895  2525  2527    1
  1896  2525  2528    1
  1897  2529  2530    1
  1898  2529  2531    1
  1899  2529  2532    1
  1900  2533  2534    1
  1901  2533  2535    1
  1902  2533  2536    1
  1903  2537  2538    1
  1904  2537  2539    1
  1905  2537  2540    1
  1906  2541  2542    1
  1907  2541  2543    1
  1908  2541  2544    1
  1909  2545  2546    1
  1910  2545  2547    1
  1911  2545  2548    1
  1912  2549  2550    1
  1913  2549  2551    1
  1914  2549  2552    1
  1915  2553  2554    1
  1916  2553  2555    1
  1917  2553  2556    1
  1918  2557  2558    1
  1919  2557  2559    1
  1920  2557  2560    1
  1921  2561  2562    1
  1922  2561  2563    1
  1923  2561  2564    1
  1924  2565  2566    1
  1925  2565  2567    1
  1926  2565  2568    1
  1927  2569  2570    1
  1928  2569  2571    1
  1929  2569  2572    1
  1930  2573  2574    1
  1931  2573  2575    1
  1932  2573  2576    1
  1933  2577  2578    1
  1934  2577  2579    1
  1935  2577  2580    1
  1936  2581  2582    1
  1937  2581  2583    1
  1938  2581  2584    1
  1939  2585  2586    1
  1940  2585  2587    1
  1941  2585  2588    1
  1942  2589  2590    1
  1943  2589  2591    1
  1944  2589  2592    1
  1945  2593  2594    1
  1946  2593  2595    1
  1947  2593  2596    1
  1948  2597  2598    1
  1949  2597  2599    1
  1950  2597  2600    1
  1951  2601  2602    1
  1952  2601  2603    1
  1953  2601  2604    1
  1954  2605  2606    1
  1955  2605  2607    1
  1956  2605  2608    1
  1957  2609  2610    1
  1958  2609  2611    1
  1959  2609  2612    1
  1960  2613  2614    1
  1961  2613  2615    1
  1962  2613  2616    1
  1963  2617  2618    1
  1964  2617  2619    1
  1965  2617  2620    1
  1966  2621  2622    1
  1967  2621  2623    1
  1968  2621  2624    1
  1969  2625  2626    1
  1970  2625  2627    1
  1971  2625  2628    1
  1972  2629  2630    1
  1973  2629  2631    1
  1974  2629  2632    1
  1975  2633  2634    1
  1976  2633  2635    1
  1977  2633  2636    1
  1978  2637  2638    1
  1979  2637  2639    1
  1980  2637  2640    1
  1981  2641  2642    1
  1982  2641  2643    1
  1983  2641  2644    1
  1984  2645  2646    1
  1985  2645  2647    1
  1986  2645  2648    1
  1987  2649  2650    1
  1988  2649  2651    1
  1989  2649  2652    1
  1990  2653  2654    1
  1991  2653  2655    1
  1992  2653  2656    1
  1993  2657  2658    1
  1994  2657  2659    1
  1995  2657  2660    1
  1996  2661  2662    1
  1997  2661  2663    1
  1998  2661  2664    1
  1999  2665  2666    1
  2000  2665  2667    1
  2001  2665  2668    1
  2002  2669  2670    1
  2003  2669  2671    1
  2004  2669  2672    1
  2005  2673  2674    1
  2006  2673  2675    1
  2007  2673  2676    1
  2008  2677  2678    1
  2009  2677  2679    1
  2010  2677  2680    1
  2011  2681  2682    1
  2012  2681  2683    1
  2013  2681  2684    1
  2014  2685  2686    1
  2015  2685  2687    1
  2016  2685  2688    1
  2017  2689  2690    1
  2018  2689  2691    1
  2019  2689  2692    1
  2020  2693  2694    1
  2021  2693  2695    1
  2022  2693  2696    1
  2023  2697  2698    1
  2024  2697  2699    1
  2025  2697  2700    1
  2026  2701  2702    1
  2027  2701  2703    1
  2028  2701  2704    1
  2029  2705  2706    1
  2030  2705  2707    1
  2031  2705  2708    1
  2032  2709  2710    1
  2033  2709  2711    1
  2034  2709  2712    1
  2035  2713  2714    1
  2036  2713  2715    1
  2037  2713  2716    1
  2038  2717  2718    1
  2039  2717  2719    1
  2040  2717  2720    1
  2041  2721  2722    1
  2042  2721  2723    1
  2043  2721  2724    1
  2044  2725  2726    1
  2045  2725  2727    1
  2046  2725  2728    1
  2047  2729  2730    1
  2048  2729  2731    1
  2049  2729  2732    1
  2050  2733  2734    1
  2051  2733  2735    1
  2052  2733  2736    1
  2053  2737  2738    1
  2054  2737  2739    1
  2055  2737  2740    1
  2056  2741  2742    1
  2057  2741  2743    1
  2058  2741  2744    1
  2059  2745  2746    1
  2060  2745  2747    1
  2061  2745  2748    1
  2062  2749  2750    1
  2063  2749  2751    1
  2064  2749  2752    1
  2065  2753  2754    1
  2066  2753  2755    1
  2067  2753  2756    1
  2068  2757  2758    1
  2069  2757  2759    1
  2070  2757  2760    1
  2071  2761  2762    1
  2072  2761  2763    1
  2073  2761  2764    1
  2074  2765  2766    1
  2075  2765  2767    1
  2076  2765  2768    1
  2077  2769  2770    1
  2078  2769  2771    1
  2079  2769  2772    1
  2080  2773  2774    1
  2081  2773  2775    1
  2082  2773  2776    1
  2083  2777  2778    1
  2084  2777  2779    1
  2085  2777  2780    1
  2086  2781  2782    1
  2087  2781  2783    1
  2088  2781  2784    1
  2089  2785  2786    1
  2090  2785  2787    1
  2091  2785  2788    1
  2092  2789  2790    1
  2093  2789  2791    1
  2094  2789  2792    1
  2095  2793  2794    1
  2096  2793  2795    1
  2097  2793  2796    1
  2098  2797  2798    1
  2099  2797  2799    1
  2100  2797  2800    1
  2101  2801  2802    1
  2102  2801  2803    1
  2103  2801  2804    1
  2104  2805  2806    1
  2105  2805  2807    1
  2106  2805  2808    1
  2107  2809  2810    1
  2108  2809  2811    1
  2109  2809  2812    1
  2110  2813  2814    1
  2111  2813  2815    1
  2112  2813  2816    1
  2113  2817  2818    1
  2114  2817  2819    1
  2115  2817  2820    1
  2116  2821  2822    1
  2117  2821  2823    1
  2118  2821  2824    1
  2119  2825  2826    1
  2120  2825  2827    1
  2121  2825  2828    1
  2122  2829  2830    1
  2123  2829  2831    1
  2124  2829  2832    1
  2125  2833  2834    1
  2126  2833  2835    1
  2127  2833  2836    1
  2128  2837  2838    1
  2129  2837  2839    1
  2130  2837  2840    1
  2131  2841  2842    1
  2132  2841  2843    1
  2133  2841  2844    1
  2134  2845  2846    1
  2135  2845  2847    1
  2136  2845  2848    1
  2137  2849  2850    1
  2138  2849  2851    1
  2139  2849  2852    1
  2140  2853  2854    1
  2141  2853  2855    1
  2142  2853  2856    1
  2143  2857  2858    1
  2144  2857  2859    1
  2145  2857  2860    1
  2146  2861  2862    1
  2147  2861  2863    1
  2148  2861  2864    1
  2149  2865  2866    1
  2150  2865  2867    1
  2151  2865  2868    1
  2152  2869  2870    1
  2153  2869  2871    1
  2154  2869  2872    1
  2155  2873  2874    1
  2156  2873  2875    1
  2157  2873  2876    1
  2158  2877  2878    1
  2159  2877  2879    1
  2160  2877  2880    1
  2161  2881  2882    1
  2162  2881  2883    1
  2163  2881  2884    1
  2164  2885  2886    1
  2165  2885  2887    1
  2166  2885  2888    1
  2167  2889  2890    1
  2168  2889  2891    1
  2169  2889  2892    1
  2170  2893  2894    1
  2171  2893  2895    1
  2172  2893  2896    1
  2173  2897  2898    1
  2174  2897  2899    1
  2175  2897  2900    1
  2176  2901  2902    1
  2177  2901  2903    1
  2178  2901  2904    1
  2179  2905  2906    1
  2180  2905  2907    1
  2181  2905  2908    1
  2182  2909  2910    1
  2183  2909  2911    1
  2184  2909  2912    1
  2185  2913  2914    1
  2186  2913  2915    1
  2187  2913  2916    1
  2188  2917  2918    1
  2189  2917  2919    1
  2190  2917  2920    1
  2191  2921  2922    1
  2192  2921  2923    1
  2193  2921  2924    1
  2194  2925  2926    1
  2195  2925  2927    1
  2196  2925  2928    1
  2197  2929  2930    1
  2198  2929  2931    1
  2199  2929  2932    1
  2200  2933  2934    1
  2201  2933  2935    1
  2202  2933  2936    1
  2203  2937  2938    1
  2204  2937  2939    1
  2205  2937  2940    1
  2206  2941  2942    1
  2207  2941  2943    1
  2208  2941  2944    1
  2209  2945  2946    1
  2210  2945  2947    1
  2211  2945  2948    1
  2212  2949  2950    1
  2213  2949  2951    1
  2214  2949  2952    1
  2215  2953  2954    1
  2216  2953  2955    1
  2217  2953  2956    1
  2218  2957  2958    1
  2219  2957  2959    1
  2220  2957  2960    1
  2221  2961  2962    1
  2222  2961  2963    1
  2223  2961  2964    1
  2224  2965  2966    1
  2225  2965  2967    1
  2226  2965  2968    1
  2227  2969  2970    1
  2228  2969  2971    1
  2229  2969  2972    1
  2230  2973  2974    1
  2231  2973  2975    1
  2232  2973  2976    1
  2233  2977  2978    1
  2234  2977  2979    1
  2235  2977  2980    1
