@<TRIPOS>MOLECULE
*****
 3972 2979 0 0 0
SMALL
GASTEIGER

@<TRIPOS>ATOM
      1 N          -1.1525   -0.8433   -0.2146 N.3     1  UNL1       -0.3437
      2 H          -0.2087   -1.2265   -0.1873 H       1  UNL1        0.1146
      3 H          -1.0500    0.1642   -0.1011 H       1  UNL1        0.1146
      4 H          -1.4863   -0.9861   -1.1667 H       1  UNL1        0.1146
      5 N          -1.1737   -0.5233    8.1212 N.3     2  UNL2       -0.3437
      6 H          -0.2274   -0.2005    8.3178 H       2  UNL2        0.1146
      7 H          -1.2151   -0.6757    7.1145 H       2  UNL2        0.1146
      8 H          -1.2502   -1.4454    8.5481 H       2  UNL2        0.1146
      9 N          -1.0938    0.4689    1.5404 N.3     3  UNL3       -0.3437
     10 H          -0.6776    1.3687    1.3045 H       3  UNL3        0.1146
     11 H          -0.3698   -0.2282    1.3719 H       3  UNL3        0.1146
     12 H          -1.2407    0.4831    2.5486 H       3  UNL3        0.1146
     13 N          -0.6809   -0.4419    3.7864 N.3     4  UNL4       -0.3437
     14 H          -1.1144   -0.1513    2.9113 H       4  UNL4        0.1146
     15 H          -0.9623    0.2477    4.4819 H       4  UNL4        0.1146
     16 H          -1.1400   -1.3120    4.0520 H       4  UNL4        0.1146
     17 N          -1.2188   -0.3962    5.7640 N.3     5  UNL5       -0.3437
     18 H          -0.8026    0.4599    6.1278 H       5  UNL5        0.1146
     19 H          -0.4948   -0.8446    5.2044 H       5  UNL5        0.1146
     20 H          -1.3657   -1.0017    6.5704 H       5  UNL5        0.1146
     21 N          -1.1890    1.7325    7.9745 N.3     6  UNL6       -0.3437
     22 H          -0.5606    2.0553    8.7089 H       6  UNL6        0.1146
     23 H          -0.6060    1.5802    7.1528 H       6  UNL6        0.1146
     24 H          -1.5107    0.8104    8.2654 H       6  UNL6        0.1146
     25 N          -1.1920    1.3726   16.5714 N.3     7  UNL7       -0.3437
     26 H          -1.0642    2.2327   17.1027 H       7  UNL7        0.1146
     27 H          -1.2871    1.6557   15.5972 H       7  UNL7        0.1146
     28 H          -0.3074    0.8705   16.6329 H       7  UNL7        0.1146
     29 N          -0.6932    3.7729    8.1344 N.3     8  UNL8       -0.3437
     30 H          -0.7007    4.0635    7.1577 H       8  UNL8        0.1146
     31 H          -1.2502    4.4625    8.6369 H       8  UNL8        0.1146
     32 H          -1.2222    2.9028    8.1726 H       8  UNL8        0.1146
     33 N          -0.7884    1.9227   18.3703 N.3     9  UNL9       -0.3437
     34 H          -0.6476    2.4324   19.2414 H       9  UNL9        0.1146
     35 H           0.0909    1.4443   18.1796 H       9  UNL9        0.1146
     36 H          -1.4665    1.1914   18.5792 H       9  UNL9        0.1146
     37 N          -0.8294    5.9712    1.9397 N.3    10  UNL10      -0.3437
     38 H          -1.5462    6.6724    2.1211 H      10  UNL10       0.1146
     39 H          -1.3063    5.1924    1.4876 H      10  UNL10       0.1146
     40 H          -0.2157    6.3733    1.2325 H      10  UNL10       0.1146
     41 N          -1.1890    6.2441    7.9745 N.3    11  UNL11      -0.3437
     42 H          -0.5606    6.5670    8.7089 H      11  UNL11       0.1146
     43 H          -0.6060    6.0918    7.1528 H      11  UNL11       0.1146
     44 H          -1.5107    5.3221    8.2654 H      11  UNL11       0.1146
     45 N          -1.2340    3.9585   12.1396 N.3    12  UNL12      -0.3437
     46 H          -1.2572    4.8769   12.5803 H      12  UNL12       0.1146
     47 H          -0.4815    3.9951   11.4534 H      12  UNL12       0.1146
     48 H          -0.9248    3.3085   12.8609 H      12  UNL12       0.1146
     49 N          -1.2771    5.8786   16.2527 N.3    13  UNL13      -0.3437
     50 H          -1.4779    6.7587   16.7254 H      13  UNL13       0.1146
     51 H          -0.2929    5.9181   15.9917 H      13  UNL13       0.1146
     52 H          -1.3496    5.1540   16.9656 H      13  UNL13       0.1146
     53 N          -1.3760    5.9129   20.5528 N.3    14  UNL14      -0.3437
     54 H          -1.2383    5.3194   21.3696 H      14  UNL14       0.1146
     55 H          -1.0969    6.8509   20.8370 H      14  UNL14       0.1146
     56 H          -0.6863    5.6106   19.8664 H      14  UNL14       0.1146
     57 N          -1.2037    8.3682    1.8612 N.3    15  UNL15      -0.3437
     58 H          -1.0759    9.0332    1.0997 H      15  UNL15       0.1146
     59 H          -1.2988    7.4535    1.4223 H      15  UNL15       0.1146
     60 H          -0.3191    8.3466    2.3665 H      15  UNL15       0.1146
     61 N          -1.1888    8.1001    3.9975 N.3    16  UNL16      -0.3437
     62 H          -1.1304    8.7584    4.7732 H      16  UNL16       0.1146
     63 H          -1.3137    8.6648    3.1586 H      16  UNL16       0.1146
     64 H          -0.2647    7.6781    3.9170 H      16  UNL16       0.1146
     65 N          -0.7010    8.2806   10.2470 N.3    17  UNL17      -0.3437
     66 H          -0.7086    8.5712    9.2704 H      17  UNL17       0.1146
     67 H          -1.2580    8.9702   10.7496 H      17  UNL17       0.1146
     68 H          -1.2300    7.4105   10.2853 H      17  UNL17       0.1146
     69 N          -0.6915    8.2728   16.3911 N.3    18  UNL18      -0.3437
     70 H          -1.2948    8.5634   15.6231 H      18  UNL18       0.1146
     71 H          -0.8247    8.9624   17.1294 H      18  UNL18       0.1146
     72 H          -1.0865    7.4027   16.7449 H      18  UNL18       0.1146
     73 N          -0.6391    7.0407   18.6007 N.3    19  UNL19      -0.3437
     74 H          -1.1712    7.0426   17.7316 H      19  UNL19       0.1146
     75 H          -0.2135    7.9638   18.6716 H      19  UNL19       0.1146
     76 H          -1.3268    6.9902   19.3509 H      19  UNL19       0.1146
     77 N          -1.1978   12.6975   16.3355 N.3    20  UNL20      -0.3437
     78 H          -1.0701   12.3143   17.2710 H      20  UNL20       0.1146
     79 H          -1.2929   13.7050   16.4552 H      20  UNL20       0.1146
     80 H          -0.3132   12.5546   15.8503 H      20  UNL20       0.1146
     81 N           0.8698   -0.8946   -0.5554 N.3    21  UNL21      -0.3437
     82 H           0.4281   -0.0648   -0.1620 H      21  UNL21       0.1146
     83 H           1.5954   -0.5548   -1.1850 H      21  UNL21       0.1146
     84 H           1.3573   -1.3462    0.2171 H      21  UNL21       0.1146
     85 N           0.8601   -0.5225    1.8004 N.3    22  UNL22      -0.3437
     86 H           0.4184   -1.3943    1.5119 H      22  UNL22       0.1146
     87 H           1.5857   -0.7824    2.4670 H      22  UNL22       0.1146
     88 H           1.3476   -0.1691    0.9783 H      22  UNL22       0.1146
     89 N           0.8601   -0.5098    8.0943 N.3    23  UNL23      -0.3437
     90 H           0.4184   -1.4221    7.9902 H      23  UNL23       0.1146
     91 H           1.5857   -0.6278    8.7999 H      23  UNL23       0.1146
     92 H           1.3476   -0.3320    7.2173 H      23  UNL23       0.1146
     93 N           0.8640   -0.5944   14.5463 N.3    24  UNL24      -0.3437
     94 H           0.4223   -1.2526   13.9059 H      24  UNL24       0.1146
     95 H           1.5896   -1.1195   15.0323 H      24  UNL24       0.1146
     96 H           1.3515    0.0826   13.9612 H      24  UNL24       0.1146
     97 N           1.3322   -0.7387   16.5928 N.3    25  UNL25      -0.3437
     98 H           1.3246   -0.4481   15.6162 H      25  UNL25       0.1146
     99 H           0.7751   -0.0491   17.0954 H      25  UNL25       0.1146
    100 H           0.8032   -1.6088   16.6311 H      25  UNL25       0.1146
    101 N           0.8620   -0.7387   18.3644 N.3    26  UNL26      -0.3437
    102 H           0.4203   -0.4481   19.2355 H      26  UNL26       0.1146
    103 H           1.5876   -0.0491   18.1737 H      26  UNL26       0.1146
    104 H           1.3495   -1.6088   18.5733 H      26  UNL26       0.1146
    105 N           0.8659    1.6594   -0.2365 N.3    27  UNL27      -0.3437
    106 H           0.4242    1.0013   -0.8769 H      27  UNL27       0.1146
    107 H           1.5915    1.1344    0.2496 H      27  UNL27       0.1146
    108 H           1.3534    2.3365   -0.8215 H      27  UNL27       0.1146
    109 N           0.8620    1.5384    1.4596 N.3    28  UNL28      -0.3437
    110 H           0.4203    1.6975    2.3640 H      28  UNL28       0.1146
    111 H           1.5876    2.2486    1.3726 H      28  UNL28       0.1146
    112 H           1.3495    0.6470    1.5379 H      28  UNL28       0.1146
    113 N           0.8601    1.4611    4.0141 N.3    29  UNL29      -0.3437
    114 H           0.4184    1.6029    3.1069 H      29  UNL29       0.1146
    115 H           1.5857    0.7609    3.8669 H      29  UNL29       0.1146
    116 H           1.3476    2.3300    4.2281 H      29  UNL29       0.1146
    117 N           1.1994   -0.4419    6.0178 N.3    30  UNL30      -0.3437
    118 H           1.1918   -0.1513    5.0411 H      30  UNL30       0.1146
    119 H           0.6423    0.2477    6.5204 H      30  UNL30       0.1146
    120 H           0.6704   -1.3120    6.0560 H      30  UNL30       0.1146
    121 N           0.8659    1.6653    8.2103 N.3    31  UNL31      -0.3437
    122 H           0.4242    1.0072    7.5698 H      31  UNL31       0.1146
    123 H           1.5915    1.1402    8.6963 H      31  UNL31       0.1146
    124 H           1.3534    2.3423    7.6252 H      31  UNL31       0.1146
    125 N           0.8581   -0.2823   10.2569 N.3    32  UNL32      -0.3437
    126 H           0.4164   -1.1541    9.9684 H      32  UNL32       0.1146
    127 H           1.5837   -0.5422   10.9235 H      32  UNL32       0.1146
    128 H           1.3456    0.0711    9.4348 H      32  UNL32       0.1146
    129 N           0.8334    1.3765   12.3461 N.3    33  UNL33      -0.3437
    130 H           0.9611    2.2366   12.8774 H      33  UNL33       0.1146
    131 H           0.7383    1.6596   11.3718 H      33  UNL33       0.1146
    132 H           1.7180    0.8744   12.4075 H      33  UNL33       0.1146
    133 N           0.9012    1.3740   14.5434 N.3    34  UNL34      -0.3437
    134 H           1.3115    1.8911   15.3197 H      34  UNL34       0.1146
    135 H           0.0174    1.8361   14.3340 H      34  UNL34       0.1146
    136 H           1.5050    1.5460   13.7408 H      34  UNL34       0.1146
    137 N           0.8620    1.5171   16.2537 N.3    35  UNL35      -0.3437
    138 H           0.4203    1.8077   17.1248 H      35  UNL35       0.1146
    139 H           1.5876    2.2067   16.0630 H      35  UNL35       0.1146
    140 H           1.3495    0.6470   16.4626 H      35  UNL35       0.1146
    141 N           1.2612    1.7359   18.5145 N.3    36  UNL36      -0.3437
    142 H           0.7292    2.0149   19.3376 H      36  UNL36       0.1146
    143 H           1.6868    0.8394   18.7458 H      36  UNL36       0.1146
    144 H           0.5735    1.5412   17.7882 H      36  UNL36       0.1146
    145 N           0.8659   -0.3355   20.5237 N.3    37  UNL37      -0.3437
    146 H           0.4242   -0.7629   21.3364 H      37  UNL37       0.1146
    147 H           1.5915    0.2795   20.8893 H      37  UNL37       0.1146
    148 H           1.3534   -1.0886   20.0404 H      37  UNL37       0.1146
    149 N           0.8363    3.9805   -0.4683 N.3    38  UNL38      -0.3437
    150 H           1.4648    4.3034    0.2660 H      38  UNL38       0.1146
    151 H           1.4194    3.8282   -1.2900 H      38  UNL38       0.1146
    152 H           0.5147    3.0584   -0.1774 H      38  UNL38       0.1146
    153 N           1.1993    3.5504    1.5986 N.3    39  UNL39      -0.3437
    154 H           1.5313    4.4128    1.1692 H      39  UNL39       0.1146
    155 H           1.2706    3.6923    2.6052 H      39  UNL39       0.1146
    156 H           0.2027    3.4994    1.3922 H      39  UNL39       0.1146
    157 N           1.0739    3.6096    3.5739 N.3    40  UNL40      -0.3437
    158 H           0.7149    3.2214    4.4450 H      40  UNL40       0.1146
    159 H           0.5125    4.4383    3.3832 H      40  UNL40       0.1146
    160 H           2.0121    3.9480    3.7828 H      40  UNL40       0.1146
    161 N           0.8640    1.6151    5.7826 N.3    41  UNL41      -0.3437
    162 H           0.4223    2.4449    6.1760 H      41  UNL41       0.1146
    163 H           1.5896    1.9549    5.1530 H      41  UNL41       0.1146
    164 H           1.3515    1.1635    6.5551 H      41  UNL41       0.1146
    165 N           1.2140    3.7659    7.7799 N.3    42  UNL42      -0.3437
    166 H           1.7183    4.2059    8.5483 H      42  UNL42       0.1146
    167 H           0.9009    2.8618    8.1305 H      42  UNL42       0.1146
    168 H           0.3707    4.3213    7.6430 H      42  UNL42       0.1146
    169 N           0.8659    1.8139    9.9216 N.3    43  UNL43      -0.3437
    170 H           0.4242    2.1045   10.7927 H      43  UNL43       0.1146
    171 H           1.5915    2.5035    9.7309 H      43  UNL43       0.1146
    172 H           1.3534    0.9438   10.1305 H      43  UNL43       0.1146
    173 N           0.8659    3.5988   12.3656 N.3    44  UNL44      -0.3437
    174 H           0.4242    4.2659   11.7346 H      44  UNL44       0.1146
    175 H           1.5915    3.1349   11.8208 H      44  UNL44       0.1146
    176 H           1.3534    4.1553   13.0663 H      44  UNL44       0.1146
    177 N           0.8698    3.9340   14.1857 N.3    45  UNL45      -0.3437
    178 H           0.4281    3.5066   14.9985 H      45  UNL45       0.1146
    179 H           1.5954    4.5490   14.5513 H      45  UNL45       0.1146
    180 H           1.3573    3.1809   13.7024 H      45  UNL45       0.1146
    181 N           1.1738    3.5112   16.4599 N.3    46  UNL46      -0.3437
    182 H           1.2246    4.3713   15.9158 H      46  UNL46       0.1146
    183 H           0.9489    3.7944   17.4126 H      46  UNL46       0.1146
    184 H           0.3565    3.0091   16.1159 H      46  UNL46       0.1146
    185 N           0.8414    3.9962   18.5773 N.3    47  UNL47      -0.3437
    186 H           0.5450    3.0674   18.2808 H      47  UNL47       0.1146
    187 H           1.2093    3.8857   19.5211 H      47  UNL47       0.1146
    188 H           1.6395    4.2368   17.9912 H      47  UNL47       0.1146
    189 N           0.8581    2.0360   20.8163 N.3    48  UNL48      -0.3437
    190 H           0.4164    1.1642   20.5278 H      48  UNL48       0.1146
    191 H           1.5837    1.7761   21.4829 H      48  UNL48       0.1146
    192 H           1.3456    2.3894   19.9942 H      48  UNL48       0.1146
    193 N           0.8659    6.1513   -0.6243 N.3    49  UNL49      -0.3437
    194 H           0.4242    5.8991    0.2587 H      49  UNL49       0.1146
    195 H           1.5915    6.8281   -0.3922 H      49  UNL49       0.1146
    196 H           1.3534    5.3152   -0.9432 H      49  UNL49       0.1146
    197 N           0.7648    6.0170    1.6688 N.3    50  UNL50      -0.3437
    198 H           1.0876    6.3076    2.5906 H      50  UNL50       0.1146
    199 H           1.1296    6.7066    1.0131 H      50  UNL50       0.1146
    200 H           1.2531    5.1469    1.4616 H      50  UNL50       0.1146
    201 N           0.8366    4.2984    5.9473 N.3    51  UNL51      -0.3437
    202 H           0.8950    3.9261    5.0006 H      51  UNL51       0.1146
    203 H           0.7117    3.4928    6.5588 H      51  UNL51       0.1146
    204 H           1.7606    4.6717    6.1599 H      51  UNL51       0.1146
    205 N           0.8601    6.1591    7.8322 N.3    52  UNL52      -0.3437
    206 H           0.4184    5.9070    8.7152 H      52  UNL52       0.1146
    207 H           1.5857    6.8359    8.0643 H      52  UNL52       0.1146
    208 H           1.3476    5.3230    7.5133 H      52  UNL52       0.1146
    209 N           1.2032    6.0287    9.8823 N.3    53  UNL53      -0.3437
    210 H           0.2385    6.3193    9.7298 H      53  UNL53       0.1146
    211 H           1.6078    6.7183   10.5141 H      53  UNL53       0.1146
    212 H           1.1543    5.1586   10.4104 H      53  UNL53       0.1146
    213 N           0.8659    6.1918   12.0789 N.3    54  UNL54      -0.3437
    214 H           0.4242    5.7643   12.8917 H      54  UNL54       0.1146
    215 H           1.5915    6.8068   12.4445 H      54  UNL54       0.1146
    216 H           1.3534    5.4386   11.5956 H      54  UNL54       0.1146
    217 N           1.0837    6.1179   14.0789 N.3    55  UNL55      -0.3437
    218 H           0.1739    5.7040   14.2770 H      55  UNL55       0.1146
    219 H           1.1708    6.9174   14.7047 H      55  UNL55       0.1146
    220 H           1.7755    5.4388   14.3929 H      55  UNL55       0.1146
    221 N           1.3244    6.0170   16.5850 N.3    56  UNL56      -0.3437
    222 H           1.3168    6.3076   15.6083 H      56  UNL56       0.1146
    223 H           0.7673    6.7066   17.0876 H      56  UNL56       0.1146
    224 H           0.7954    5.1469   16.6233 H      56  UNL56       0.1146
    225 N           0.8698    6.2391   18.6997 N.3    57  UNL57      -0.3437
    226 H           0.4281    5.3673   18.4112 H      57  UNL57       0.1146
    227 H           1.5954    5.9792   19.3663 H      57  UNL57       0.1146
    228 H           1.3573    6.5925   17.8776 H      57  UNL57       0.1146
    229 N           0.8581    4.1981   20.8143 N.3    58  UNL58      -0.3437
    230 H           0.4164    3.3263   20.5258 H      58  UNL58       0.1146
    231 H           1.5837    3.9382   21.4809 H      58  UNL58       0.1146
    232 H           1.3456    4.5515   19.9922 H      58  UNL58       0.1146
    233 N           1.2495    8.0733   -0.4428 N.3    59  UNL59      -0.3437
    234 H           1.1546    8.4509    0.4989 H      59  UNL59       0.1146
    235 H           0.3080    7.8217   -0.7406 H      59  UNL59       0.1146
    236 H           1.5309    8.8555   -1.0321 H      59  UNL59       0.1146
    237 N           0.8659    8.1504    1.8503 N.3    60  UNL60      -0.3437
    238 H           0.4242    8.6744    1.0962 H      60  UNL60       0.1146
    239 H           1.5915    7.5849    1.4120 H      60  UNL60       0.1146
    240 H           1.3534    8.8385    2.4224 H      60  UNL60       0.1146
    241 N           0.8581    4.7508    3.9189 N.3    61  UNL61      -0.3437
    242 H           0.4164    3.8790    3.6304 H      61  UNL61       0.1146
    243 H           1.5837    4.4909    4.5855 H      61  UNL61       0.1146
    244 H           1.3456    5.1042    3.0968 H      61  UNL61       0.1146
    245 N           0.9972    8.1453    6.0366 N.3    62  UNL62      -0.3437
    246 H           1.5073    8.6624    5.3219 H      62  UNL62       0.1146
    247 H           1.2060    8.6075    6.9205 H      62  UNL62       0.1146
    248 H           0.0091    8.3174    5.8563 H      62  UNL62       0.1146
    249 N           1.1607    8.3711    8.0017 N.3    63  UNL63      -0.3437
    250 H           0.3287    8.6939    7.5098 H      63  UNL63       0.1146
    251 H           0.8746    8.2187    8.9677 H      63  UNL63       0.1146
    252 H           1.3711    7.4490    7.6224 H      63  UNL63       0.1146
    253 N           1.1116    8.4882   10.3659 N.3    64  UNL64      -0.3437
    254 H           1.4605    8.8111    9.4645 H      64  UNL64       0.1146
    255 H           0.1117    8.3359   10.2418 H      64  UNL64       0.1146
    256 H           1.5202    7.5662   10.5113 H      64  UNL64       0.1146
    257 N           0.9072    8.5597   12.2924 N.3    65  UNL65      -0.3437
    258 H           0.3716    7.8824   11.7514 H      65  UNL65       0.1146
    259 H           1.1327    8.1002   13.1736 H      65  UNL65       0.1146
    260 H           1.7925    8.6747   11.8011 H      65  UNL65       0.1146
    261 N           0.9397    8.7307   14.4617 N.3    66  UNL66      -0.3437
    262 H           0.3183    8.4419   15.2158 H      66  UNL66       0.1146
    263 H           1.8459    8.3132   14.6689 H      66  UNL66       0.1146
    264 H           0.6000    8.2624   13.6228 H      66  UNL66       0.1146
    265 N           0.8363    8.1507   16.5849 N.3    67  UNL67      -0.3437
    266 H           1.4648    7.6079   15.9943 H      67  UNL67       0.1146
    267 H           1.4194    8.5604   17.3133 H      67  UNL67       0.1146
    268 H           0.5147    8.9293   16.0116 H      67  UNL67       0.1146
    269 N           0.8698    8.2845   18.3664 N.3    68  UNL68      -0.3437
    270 H           0.4281    8.5751   19.2375 H      68  UNL68       0.1146
    271 H           1.5954    8.9741   18.1757 H      68  UNL68       0.1146
    272 H           1.3573    7.4144   18.5753 H      68  UNL68       0.1146
    273 N           0.2624    6.4348   21.5279 N.3    69  UNL69      -0.3437
    274 H           0.7882    6.3795   22.3990 H      69  UNL69       0.1146
    275 H          -0.0656    5.4891   21.3372 H      69  UNL69       0.1146
    276 H          -0.5702    6.9840   21.7368 H      69  UNL69       0.1146
    277 N           0.8620   10.5404   -0.6397 N.3    70  UNL70      -0.3437
    278 H           0.4203   10.8310    0.2314 H      70  UNL70       0.1146
    279 H           1.5876   11.2300   -0.8305 H      70  UNL70       0.1146
    280 H           1.3495    9.6703   -0.4308 H      70  UNL70       0.1146
    281 N           0.8640   10.5345    1.4671 N.3    71  UNL71      -0.3437
    282 H           0.4223   10.8251    2.3382 H      71  UNL71       0.1146
    283 H           1.5896   11.2241    1.2764 H      71  UNL71       0.1146
    284 H           1.3515    9.6644    1.6760 H      71  UNL71       0.1146
    285 N           1.1613    7.3626    4.1346 N.3    72  UNL72      -0.3437
    286 H           0.8099    6.8734    3.3127 H      72  UNL72       0.1146
    287 H           1.8613    8.0194    3.7926 H      72  UNL72       0.1146
    288 H           0.3869    7.9302    4.4761 H      72  UNL72       0.1146
    289 N           1.0785   10.6106    5.6307 N.3    73  UNL73      -0.3437
    290 H           1.5357    9.7408    5.9003 H      73  UNL73       0.1146
    291 H           0.1148   10.5328    5.9526 H      73  UNL73       0.1146
    292 H           1.5062   11.3405    6.1987 H      73  UNL73       0.1146
    293 N           1.3244   10.5365    8.1344 N.3    74  UNL74      -0.3437
    294 H           1.3168   10.8271    7.1577 H      74  UNL74       0.1146
    295 H           0.7673   11.2261    8.6369 H      74  UNL74       0.1146
    296 H           0.7954    9.6664    8.1726 H      74  UNL74       0.1146
    297 N           0.8620   10.5404    9.9196 N.3    75  UNL75      -0.3437
    298 H           0.4203   10.8310   10.7907 H      75  UNL75       0.1146
    299 H           1.5876   11.2300    9.7289 H      75  UNL75       0.1146
    300 H           1.3495    9.6703   10.1285 H      75  UNL75       0.1146
    301 N           1.2857   10.7519   12.2270 N.3    76  UNL76      -0.3437
    302 H           0.4537   11.0747   11.7352 H      76  UNL76       0.1146
    303 H           0.9996   10.5995   13.1931 H      76  UNL76       0.1146
    304 H           1.4961    9.8298   11.8477 H      76  UNL76       0.1146
    305 N           1.2032   10.8116   14.3780 N.3    77  UNL77      -0.3437
    306 H           1.5352   10.1343   15.0631 H      77  UNL77       0.1146
    307 H           1.2745   10.3521   13.4713 H      77  UNL77       0.1146
    308 H           0.2066   10.9266   14.5568 H      77  UNL77       0.1146
    309 N           0.9111   10.8116   16.5100 N.3    78  UNL78      -0.3437
    310 H           0.3755   10.1343   15.9689 H      78  UNL78       0.1146
    311 H           1.1366   10.3521   17.3911 H      78  UNL78       0.1146
    312 H           1.7964   10.9266   16.0186 H      78  UNL78       0.1146
    313 N           0.9072   10.8156   18.6265 N.3    79  UNL79      -0.3437
    314 H           0.3716   10.1382   18.0855 H      79  UNL79       0.1146
    315 H           1.1327   10.3560   19.5076 H      79  UNL79       0.1146
    316 H           1.7925   10.9305   18.1352 H      79  UNL79       0.1146
    317 N           0.8679    8.7097   20.8143 N.3    80  UNL80      -0.3437
    318 H           0.4262    7.8379   20.5258 H      80  UNL80       0.1146
    319 H           1.5935    8.4498   21.4809 H      80  UNL80       0.1146
    320 H           1.3554    9.0631   19.9922 H      80  UNL80       0.1146
    321 N          -1.2044   12.7476   -0.6169 N.3    81  UNL81      -0.3437
    322 H          -1.1460   12.0903    0.1595 H      81  UNL81       0.1146
    323 H          -1.3293   13.6677   -0.1972 H      81  UNL81       0.1146
    324 H          -0.2804   12.7579   -1.0463 H      81  UNL81       0.1146
    325 N           1.1389   12.9659    1.9304 N.3    82  UNL82      -0.3437
    326 H           1.7588   13.1134    1.1352 H      82  UNL82       0.1146
    327 H           0.2079   13.2339    1.6143 H      82  UNL82       0.1146
    328 H           1.1061   11.9581    2.0777 H      82  UNL82       0.1146
    329 N           0.8581   10.9656    3.9072 N.3    83  UNL83      -0.3437
    330 H           0.4164   10.0938    3.6187 H      83  UNL83       0.1146
    331 H           1.5837   10.7056    4.5738 H      83  UNL83       0.1146
    332 H           1.3456   11.3189    3.0851 H      83  UNL83       0.1146
    333 N           0.8659   12.7559    5.7008 N.3    84  UNL84      -0.3437
    334 H           0.4242   13.1717    6.5196 H      84  UNL84       0.1146
    335 H           1.5915   13.4099    5.4105 H      84  UNL84       0.1146
    336 H           1.3534   11.9261    6.0357 H      84  UNL84       0.1146
    337 N          -0.6854   12.7923    8.1363 N.3    85  UNL85      -0.3437
    338 H          -0.6930   13.0829    7.1597 H      85  UNL85       0.1146
    339 H          -1.2424   13.4819    8.6389 H      85  UNL85       0.1146
    340 H          -1.2144   11.9222    8.1746 H      85  UNL85       0.1146
    341 N           1.0973   12.9660   10.3981 N.3    86  UNL86      -0.3437
    342 H           0.1528   13.0878   10.0355 H      86  UNL86       0.1146
    343 H           1.2369   11.9605   10.4861 H      86  UNL86       0.1146
    344 H           1.7247   13.2728    9.6561 H      86  UNL86       0.1146
    345 N           0.9072   12.5903   12.1285 N.3    87  UNL87      -0.3437
    346 H           0.3716   13.0564   12.8594 H      87  UNL87       0.1146
    347 H           1.1327   13.3099   11.4432 H      87  UNL87       0.1146
    348 H           1.7925   12.3226   12.5563 H      87  UNL87       0.1146
    349 N           1.3179   12.6916   14.4241 N.3    88  UNL88      -0.3437
    350 H           0.8947   12.3084   13.5801 H      88  UNL88       0.1146
    351 H           1.3692   13.6991   14.2801 H      88  UNL88       0.1146
    352 H           0.6376   12.5488   15.1692 H      88  UNL88       0.1146
    353 N           1.3244   12.7942   16.5928 N.3    89  UNL89      -0.3437
    354 H           1.3168   13.0848   15.6162 H      89  UNL89       0.1146
    355 H           0.7673   13.4838   17.0954 H      89  UNL89       0.1146
    356 H           0.7954   11.9241   16.6311 H      89  UNL89       0.1146
    357 N           0.8659   12.9612   18.4149 N.3    90  UNL90      -0.3437
    358 H           0.4242   12.5338   19.2277 H      90  UNL90       0.1146
    359 H           1.5915   13.5762   18.7805 H      90  UNL90       0.1146
    360 H           1.3534   12.2081   17.9317 H      90  UNL90       0.1146
    361 N           0.8581   10.5510   20.6592 N.3    91  UNL91      -0.3437
    362 H           0.4164   11.4692   20.6505 H      91  UNL91       0.1146
    363 H           1.5837   10.5815   19.9444 H      91  UNL91       0.1146
    364 H           1.3456   10.4822   21.5514 H      91  UNL91       0.1146
    365 N           0.8659   15.0520   -0.6476 N.3    92  UNL92      -0.3437
    366 H           0.4242   15.3426    0.2235 H      92  UNL92       0.1146
    367 H           1.5915   15.7416   -0.8383 H      92  UNL92       0.1146
    368 H           1.3534   14.1819   -0.4387 H      92  UNL92       0.1146
    369 N           0.7590   16.0930    1.6707 N.3    93  UNL93      -0.3437
    370 H           1.0818   16.3836    2.5925 H      93  UNL93       0.1146
    371 H           1.1237   16.7826    1.0151 H      93  UNL93       0.1146
    372 H           1.2472   15.2229    1.4636 H      93  UNL93       0.1146
    373 N           0.8698   13.0930    3.5739 N.3    94  UNL94      -0.3437
    374 H           0.4281   13.3836    4.4450 H      94  UNL94       0.1146
    375 H           1.5954   13.7826    3.3832 H      94  UNL94       0.1146
    376 H           1.3573   12.2229    3.7828 H      94  UNL94       0.1146
    377 N           0.7609   16.0930    3.9468 N.3    95  UNL95      -0.3437
    378 H           1.0837   16.3836    4.8686 H      95  UNL95       0.1146
    379 H           1.1257   16.7826    3.2912 H      95  UNL95       0.1146
    380 H           1.2492   15.2229    3.7397 H      95  UNL95       0.1146
    381 N           1.3283   16.0305    8.1383 N.3    96  UNL96      -0.3437
    382 H           1.3207   16.3211    7.1616 H      96  UNL96       0.1146
    383 H           0.7712   16.7201    8.6408 H      96  UNL96       0.1146
    384 H           0.7993   15.1604    8.1765 H      96  UNL96       0.1146
    385 N           1.0558   15.8629    9.9932 N.3    97  UNL97      -0.3437
    386 H           0.1213   16.2376   10.1501 H      97  UNL97       0.1146
    387 H           1.5696   16.5889    9.4959 H      97  UNL97       0.1146
    388 H           1.4884   15.7928   10.9131 H      97  UNL97       0.1146
    389 N           1.2348   16.3162   12.2048 N.3    98  UNL98      -0.3437
    390 H           0.4897   16.2663   11.5115 H      98  UNL98       0.1146
    391 H           0.7721   16.3610   13.1116 H      98  UNL98       0.1146
    392 H           1.7072   15.4137   12.1749 H      98  UNL98       0.1146
    393 N           1.0475   16.3474   14.1823 N.3    99  UNL99      -0.3437
    394 H           0.2415   16.2975   14.8038 H      99  UNL99       0.1146
    395 H           1.8663   16.3922   14.7873 H      99  UNL99       0.1146
    396 H           1.0954   15.4450   13.7114 H      99  UNL99       0.1146
    397 N           0.8659   15.0500   16.2557 N.3   100  UNL100     -0.3437
    398 H           0.4242   15.3406   17.1268 H     100  UNL100      0.1146
    399 H           1.5915   15.7396   16.0650 H     100  UNL100      0.1146
    400 H           1.3534   14.1799   16.4646 H     100  UNL100      0.1146
    401 N           1.3302   16.0930   18.6996 N.3   101  UNL101     -0.3437
    402 H           1.3227   16.3836   17.7230 H     101  UNL101      0.1146
    403 H           0.7732   16.7826   19.2022 H     101  UNL101      0.1146
    404 H           0.8012   15.2229   18.7379 H     101  UNL101      0.1146
    405 N           0.7409   15.0520   20.4810 N.3   102  UNL102     -0.3437
    406 H           0.2992   15.3426   21.3521 H     102  UNL102      0.1146
    407 H           1.4665   15.7416   20.2903 H     102  UNL102      0.1146
    408 H           1.2284   14.1819   20.6899 H     102  UNL102      0.1146
    409 N           2.9021   -0.8433    1.8981 N.3   103  UNL103     -0.3437
    410 H           3.8459   -1.2265    1.9253 H     103  UNL103      0.1146
    411 H           3.0046    0.1642    2.0115 H     103  UNL103      0.1146
    412 H           2.5683   -0.9861    0.9460 H     103  UNL103      0.1146
    413 N           3.1867   -0.5904    3.5467 N.3   104  UNL104     -0.3437
    414 H           3.4294   -1.5760    3.6359 H     104  UNL104      0.1146
    415 H           2.1714   -0.5434    3.6189 H     104  UNL104      0.1146
    416 H           3.5491   -0.1351    4.3832 H     104  UNL104      0.1146
    417 N           3.0883   -0.5370    6.1532 N.3   105  UNL105     -0.3437
    418 H           2.2113   -1.0533    6.1014 H     105  UNL105      0.1146
    419 H           3.8271   -1.2388    6.1634 H     105  UNL105      0.1146
    420 H           3.1787   -0.0470    5.2643 H     105  UNL105      0.1146
    421 N           3.3111   -0.8967    7.9871 N.3   106  UNL106     -0.3437
    422 H           2.4791   -1.3612    8.3482 H     106  UNL106      0.1146
    423 H           3.0249   -0.4403    7.1222 H     106  UNL106      0.1146
    424 H           3.5215   -0.1467    8.6441 H     106  UNL106      0.1146
    425 N           2.8952   -0.7407    9.9157 N.3   107  UNL107     -0.3437
    426 H           2.4535   -0.4501   10.7868 H     107  UNL107      0.1146
    427 H           3.6208   -0.0511    9.7250 H     107  UNL107      0.1146
    428 H           3.3827   -1.6108   10.1246 H     107  UNL107      0.1146
    429 N           2.8539   -0.5311   12.2077 N.3   108  UNL108     -0.3437
    430 H           3.4823   -0.2083   12.9420 H     108  UNL108      0.1146
    431 H           3.4369   -0.6835   11.3859 H     108  UNL108      0.1146
    432 H           2.5322   -1.4532   12.4986 H     108  UNL108      0.1146
    433 N           3.3033   -0.5311   14.3435 N.3   109  UNL109     -0.3437
    434 H           2.4713   -0.2083   13.8517 H     109  UNL109      0.1146
    435 H           3.0171   -0.6835   15.3096 H     109  UNL109      0.1146
    436 H           3.5137   -1.4532   13.9643 H     109  UNL109      0.1146
    437 N           2.8874   -0.9024   18.4547 N.3   110  UNL110     -0.3437
    438 H           2.4457   -0.0726   18.8480 H     110  UNL110      0.1146
    439 H           3.6130   -0.5626   17.8250 H     110  UNL110      0.1146
    440 H           3.3749   -1.3540   19.2271 H     110  UNL110      0.1146
    441 N           3.0703   -0.8702   21.9749 N.3   111  UNL111     -0.3437
    442 H           3.7916   -0.1503   21.9728 H     111  UNL111      0.1146
    443 H           2.1985   -0.3949   21.7461 H     111  UNL111      0.1146
    444 H           3.2762   -1.4763   21.1820 H     111  UNL111      0.1146
    445 N           2.8398   -0.2557   -0.4054 N.3   112  UNL112     -0.3437
    446 H           3.2559   -0.4743    0.4988 H     112  UNL112      0.1146
    447 H           3.5637    0.2229   -0.9394 H     112  UNL112      0.1146
    448 H           2.6928   -1.1503   -0.8706 H     112  UNL112      0.1146
    449 N           3.0157    1.2554    1.9293 N.3   113  UNL113     -0.3437
    450 H           3.5607    2.1155    1.8903 H     113  UNL113      0.1146
    451 H           2.0390    1.5385    1.8635 H     113  UNL113      0.1146
    452 H           3.2212    0.7533    1.0667 H     113  UNL113      0.1146
    453 N           3.1828    1.6616    3.5545 N.3   114  UNL114     -0.3437
    454 H           3.4255    0.6759    3.6437 H     114  UNL114      0.1146
    455 H           2.1675    1.7085    3.6267 H     114  UNL114      0.1146
    456 H           3.5452    2.1168    4.3910 H     114  UNL114      0.1146
    457 N           3.1329    1.3804    6.1546 N.3   115  UNL115     -0.3437
    458 H           3.6779    2.2405    6.1156 H     115  UNL115      0.1146
    459 H           2.1562    1.6635    6.0888 H     115  UNL115      0.1146
    460 H           3.3384    0.8783    5.2920 H     115  UNL115      0.1146
    461 N           2.8628    1.3507    7.9832 N.3   116  UNL116     -0.3437
    462 H           2.5665    2.1338    8.5639 H     116  UNL116      0.1146
    463 H           3.2307    1.7603    7.1257 H     116  UNL116      0.1146
    464 H           3.6610    0.9336    8.4600 H     116  UNL116      0.1146
    465 N           2.8578    1.7286   10.0911 N.3   117  UNL117     -0.3437
    466 H           3.4862    2.0514   10.8254 H     117  UNL117      0.1146
    467 H           3.4408    1.5762    9.2694 H     117  UNL117      0.1146
    468 H           2.5361    0.8065   10.3820 H     117  UNL117      0.1146
    469 N           2.8952    1.5093   12.0304 N.3   118  UNL118     -0.3437
    470 H           2.4535    1.7999   12.9015 H     118  UNL118      0.1146
    471 H           3.6208    2.1989   11.8397 H     118  UNL118      0.1146
    472 H           3.3827    0.6392   12.2393 H     118  UNL118      0.1146
    473 N           3.1246    1.3156   14.5473 N.3   119  UNL119     -0.3437
    474 H           2.1801    1.6932   14.6080 H     119  UNL119      0.1146
    475 H           3.2642    1.0640   13.5698 H     119  UNL119      0.1146
    476 H           3.7520    2.0978   14.7284 H     119  UNL119      0.1146
    477 N           2.9473    1.7884   16.4258 N.3   120  UNL120     -0.3437
    478 H           2.8545    1.1110   15.6702 H     120  UNL120      0.1146
    479 H           2.5867    1.3288   17.2608 H     120  UNL120      0.1146
    480 H           3.9481    1.9034   16.5786 H     120  UNL120      0.1146
    481 N           3.3033    1.7247   18.5728 N.3   121  UNL121     -0.3437
    482 H           2.4713    2.0475   18.0809 H     121  UNL121      0.1146
    483 H           3.0171    1.5723   19.5388 H     121  UNL121      0.1146
    484 H           3.5137    0.8026   18.1935 H     121  UNL121      0.1146
    485 N           2.9405    1.5224   21.9124 N.3   122  UNL122     -0.3437
    486 H           3.7688    0.9288   21.9103 H     122  UNL122      0.1146
    487 H           3.2666    2.4603   21.6836 H     122  UNL122      0.1146
    488 H           2.3763    1.2200   21.1195 H     122  UNL122      0.1146
    489 N           2.8854    4.0038   -0.3583 N.3   123  UNL123     -0.3437
    490 H           2.4437    3.0915   -0.4624 H     123  UNL123      0.1146
    491 H           3.6110    3.8858    0.3473 H     123  UNL123      0.1146
    492 H           3.3729    4.1816   -1.2353 H     123  UNL123      0.1146
    493 N           3.2247    3.8979    1.8003 N.3   124  UNL124     -0.3437
    494 H           3.2172    4.1885    0.8236 H     124  UNL124      0.1146
    495 H           2.6677    4.5875    2.3029 H     124  UNL124      0.1146
    496 H           2.6957    3.0278    1.8385 H     124  UNL124      0.1146
    497 N           3.1018    3.9883    3.5801 N.3   125  UNL125     -0.3437
    498 H           2.4803    4.3112    4.3203 H     125  UNL125      0.1146
    499 H           4.0079    3.8360    4.0207 H     125  UNL125      0.1146
    500 H           2.7621    3.0662    3.3104 H     125  UNL125      0.1146
    501 N           2.8578    3.9805    5.8658 N.3   126  UNL126     -0.3437
    502 H           3.4862    4.3034    6.6001 H     126  UNL126      0.1146
    503 H           3.4408    3.8282    5.0440 H     126  UNL126      0.1146
    504 H           2.5361    3.0584    6.1567 H     126  UNL126      0.1146
    505 N           2.8952    3.7690    7.8109 N.3   127  UNL127     -0.3437
    506 H           2.4535    4.0596    8.6820 H     127  UNL127      0.1146
    507 H           3.6208    4.4586    7.6202 H     127  UNL127      0.1146
    508 H           3.3827    2.8989    8.0198 H     127  UNL127      0.1146
    509 N           3.1828    3.9096    9.8925 N.3   128  UNL128     -0.3437
    510 H           3.4255    2.9239    9.9817 H     128  UNL128      0.1146
    511 H           2.1675    3.9565    9.9647 H     128  UNL128      0.1146
    512 H           3.5452    4.3649   10.7290 H     128  UNL128      0.1146
    513 N           3.2474    3.9213   12.4554 N.3   129  UNL129     -0.3437
    514 H           3.0539    2.9356   12.6268 H     129  UNL129      0.1146
    515 H           3.6650    3.9682   11.5270 H     129  UNL129      0.1146
    516 H           2.3391    4.3766   12.3781 H     129  UNL129      0.1146
    517 N           3.0164    3.5267   14.4739 N.3   130  UNL130     -0.3437
    518 H           2.4506    3.7394   13.6535 H     130  UNL130      0.1146
    519 H           3.9869    3.6185   14.1772 H     130  UNL130      0.1146
    520 H           2.8514    4.2858   15.1334 H     130  UNL130      0.1146
    521 N           3.3575    3.7690   16.5811 N.3   131  UNL131     -0.3437
    522 H           3.3500    4.0596   15.6044 H     131  UNL131      0.1146
    523 H           2.8005    4.4586   17.0837 H     131  UNL131      0.1146
    524 H           2.8286    2.8989   16.6193 H     131  UNL131      0.1146
    525 N           2.8835    3.7690   18.3742 N.3   132  UNL132     -0.3437
    526 H           2.4418    4.0596   19.2453 H     132  UNL132      0.1146
    527 H           3.6091    4.4586   18.1835 H     132  UNL132      0.1146
    528 H           3.3710    2.8989   18.5831 H     132  UNL132      0.1146
    529 N           2.8114    3.7899   21.6310 N.3   133  UNL133     -0.3437
    530 H           2.9491    3.1964   22.4477 H     133  UNL133      0.1146
    531 H           3.0905    4.7279   21.9151 H     133  UNL133      0.1146
    532 H           3.5012    3.4876   20.9445 H     133  UNL133      0.1146
    533 N           2.8617    6.2441   -0.4761 N.3   134  UNL134     -0.3437
    534 H           3.4901    6.5670    0.2582 H     134  UNL134      0.1146
    535 H           3.4447    6.0918   -1.2979 H     134  UNL134      0.1146
    536 H           2.5400    5.3221   -0.1852 H     134  UNL134      0.1146
    537 N           2.9824    5.8643    1.4823 N.3   135  UNL135     -0.3437
    538 H           3.8086    5.5022    1.9562 H     135  UNL135      0.1146
    539 H           2.2889    6.0263    2.2112 H     135  UNL135      0.1146
    540 H           3.2410    6.7853    1.1312 H     135  UNL135      0.1146
    541 N           2.8893    6.0287    3.5817 N.3   136  UNL136     -0.3437
    542 H           2.4476    6.3193    4.4528 H     136  UNL136      0.1146
    543 H           3.6149    6.7183    3.3910 H     136  UNL136      0.1146
    544 H           3.3768    5.1586    3.7906 H     136  UNL136      0.1146
    545 N           2.8578    5.8620    5.9002 N.3   137  UNL137     -0.3437
    546 H           3.4862    5.7938    5.1009 H     137  UNL137      0.1146
    547 H           3.4408    5.7406    6.7270 H     137  UNL137      0.1146
    548 H           2.5361    6.8286    5.9229 H     137  UNL137      0.1146
    549 N           3.2325    6.3000    8.0400 N.3   138  UNL138     -0.3437
    550 H           3.5644    5.6227    8.7251 H     138  UNL138      0.1146
    551 H           3.3038    5.8404    7.1333 H     138  UNL138      0.1146
    552 H           2.2359    6.4150    8.2189 H     138  UNL138      0.1146
    553 N           2.8952    6.0248    9.9157 N.3   139  UNL139     -0.3437
    554 H           2.4535    6.3154   10.7868 H     139  UNL139      0.1146
    555 H           3.6208    6.7144    9.7250 H     139  UNL139      0.1146
    556 H           3.3827    5.1547   10.1246 H     139  UNL139      0.1146
    557 N           2.8470    6.2045   12.3428 N.3   140  UNL140     -0.3437
    558 H           2.9748    6.2648   11.3336 H     140  UNL140      0.1146
    559 H           2.7519    5.2124   12.5551 H     140  UNL140      0.1146
    560 H           3.7316    6.4965   12.7558 H     140  UNL140      0.1146
    561 N           2.8952    5.8729   14.2332 N.3   141  UNL141     -0.3437
    562 H           2.4535    6.7026   14.6266 H     141  UNL141      0.1146
    563 H           3.6208    6.2127   13.6036 H     141  UNL141      0.1146
    564 H           3.3827    5.4212   15.0057 H     141  UNL141      0.1146
    565 N           2.8874    6.0958   16.6862 N.3   142  UNL142     -0.3437
    566 H           2.4457    6.2376   15.7789 H     142  UNL142      0.1146
    567 H           3.6130    5.3956   16.5390 H     142  UNL142      0.1146
    568 H           3.3749    6.9647   16.9001 H     142  UNL142      0.1146
    569 N           3.3394    5.9242   18.6455 N.3   143  UNL143     -0.3437
    570 H           2.9161    5.5410   17.8015 H     143  UNL143      0.1146
    571 H           3.3907    6.9317   18.5015 H     143  UNL143      0.1146
    572 H           2.6591    5.7813   19.3906 H     143  UNL143      0.1146
    573 N           1.2353    5.9143   20.4829 N.3   144  UNL144     -0.3437
    574 H           1.2668    5.3865   21.3540 H     144  UNL144      0.1146
    575 H           0.2486    6.0829   20.2922 H     144  UNL144      0.1146
    576 H           1.6406    6.8256   20.6918 H     144  UNL144      0.1146
    577 N           2.8893    8.4949   -0.2465 N.3   145  UNL145     -0.3437
    578 H           2.4476    7.6231   -0.5350 H     145  UNL145      0.1146
    579 H           3.6149    8.2350    0.4201 H     145  UNL145      0.1146
    580 H           3.3768    8.8483   -1.0686 H     145  UNL145      0.1146
    581 N           0.2665    8.6175    3.6066 N.3   146  UNL146     -0.3437
    582 H           0.2981    7.6416    3.3151 H     146  UNL146      0.1146
    583 H          -0.7202    8.8445    3.7218 H     146  UNL146      0.1146
    584 H           0.6719    8.6447    4.5412 H     146  UNL146      0.1146
    585 N           2.8923    8.0817    5.8333 N.3   147  UNL147     -0.3437
    586 H           3.1150    8.0837    6.8277 H     147  UNL147      0.1146
    587 H           2.5124    9.0048    5.6287 H     147  UNL147      0.1146
    588 H           3.7856    8.0312    5.3456 H     147  UNL147      0.1146
    589 N           3.2794    8.1342    8.1764 N.3   148  UNL148     -0.3437
    590 H           2.3957    8.2363    8.6733 H     148  UNL148      0.1146
    591 H           3.0448    7.7505    7.2619 H     148  UNL148      0.1146
    592 H           3.6167    9.0805    8.0057 H     148  UNL148      0.1146
    593 N           3.2286    8.2728    9.8862 N.3   149  UNL149     -0.3437
    594 H           2.2639    8.5634    9.7337 H     149  UNL149      0.1146
    595 H           3.6331    8.9624   10.5180 H     149  UNL149      0.1146
    596 H           3.1797    7.4027   10.4143 H     149  UNL149      0.1146
    597 N           2.8913    8.2845   12.0362 N.3   150  UNL150     -0.3437
    598 H           2.4496    8.5751   12.9073 H     150  UNL150      0.1146
    599 H           3.6169    8.9741   11.8455 H     150  UNL150      0.1146
    600 H           3.3788    7.4144   12.2451 H     150  UNL150      0.1146
    601 N           3.2511    8.4558   14.6080 N.3   151  UNL151     -0.3437
    602 H           4.1240    8.0788   14.2416 H     151  UNL151      0.1146
    603 H           2.8462    9.0098   13.8546 H     151  UNL151      0.1146
    604 H           2.6309    7.6570   14.7337 H     151  UNL151      0.1146
    605 N           3.0082    8.1648   16.0612 N.3   152  UNL152     -0.3437
    606 H           2.2251    7.5713   16.3308 H     152  UNL152      0.1146
    607 H           2.7736    9.1028   16.3831 H     152  UNL152      0.1146
    608 H           3.7984    7.8625   16.6292 H     152  UNL152      0.1146
    609 N           2.8952    8.1287   18.4605 N.3   153  UNL153     -0.3437
    610 H           2.4535    8.9584   18.8539 H     153  UNL153      0.1146
    611 H           3.6208    8.4685   17.8309 H     153  UNL153      0.1146
    612 H           3.3827    7.6770   19.2330 H     153  UNL153      0.1146
    613 N           3.1406    6.4458   20.4751 N.3   154  UNL154     -0.3437
    614 H           3.5904    6.7236   21.3462 H     154  UNL154      0.1146
    615 H           3.4596    5.4970   20.2844 H     154  UNL154      0.1146
    616 H           2.1460    6.3709   20.6840 H     154  UNL154      0.1146
    617 N           2.8913   10.5404   -0.6437 N.3   155  UNL155     -0.3437
    618 H           2.4496   10.8310    0.2274 H     155  UNL155      0.1146
    619 H           3.6169   11.2300   -0.8344 H     155  UNL155      0.1146
    620 H           3.3788    9.6703   -0.4348 H     155  UNL155      0.1146
    621 N           2.8874   10.5345    1.4671 N.3   156  UNL156     -0.3437
    622 H           2.4457   10.8251    2.3382 H     156  UNL156      0.1146
    623 H           3.6130   11.2241    1.2764 H     156  UNL156      0.1146
    624 H           3.3749    9.6644    1.6760 H     156  UNL156      0.1146
    625 N           2.8952   10.5404    3.5739 N.3   157  UNL157     -0.3437
    626 H           2.4535   10.8310    4.4450 H     157  UNL157      0.1146
    627 H           3.6208   11.2300    3.3832 H     157  UNL157      0.1146
    628 H           3.3827    9.6703    3.7828 H     157  UNL157      0.1146
    629 N           2.8913   10.5345    5.6904 N.3   158  UNL158     -0.3437
    630 H           2.4496   10.8251    6.5615 H     158  UNL158      0.1146
    631 H           3.6169   11.2241    5.4997 H     158  UNL158      0.1146
    632 H           3.3788    9.6644    5.8993 H     158  UNL158      0.1146
    633 N           2.8952   10.5404    7.8070 N.3   159  UNL159     -0.3437
    634 H           2.4535   10.8310    8.6781 H     159  UNL159      0.1146
    635 H           3.6208   11.2300    7.6163 H     159  UNL159      0.1146
    636 H           3.3827    9.6703    8.0159 H     159  UNL159      0.1146
    637 N           2.8913   10.7713   10.2108 N.3   160  UNL160     -0.3437
    638 H           2.4496    9.8589   10.1067 H     160  UNL160      0.1146
    639 H           3.6169   10.6532   10.9165 H     160  UNL160      0.1146
    640 H           3.3788   10.9490    9.3338 H     160  UNL160      0.1146
    641 N           3.3536   10.5404   12.3675 N.3   161  UNL161     -0.3437
    642 H           3.3461   10.8310   11.3908 H     161  UNL161      0.1146
    643 H           2.7966   11.2300   12.8701 H     161  UNL161      0.1146
    644 H           2.8246    9.6703   12.4057 H     161  UNL161      0.1146
    645 N           2.8952   10.5404   14.1372 N.3   162  UNL162     -0.3437
    646 H           2.4535   10.8310   15.0083 H     162  UNL162      0.1146
    647 H           3.6208   11.2300   13.9465 H     162  UNL162      0.1146
    648 H           3.3827    9.6703   14.3461 H     162  UNL162      0.1146
    649 N           3.0202   10.5404   16.2557 N.3   163  UNL163     -0.3437
    650 H           2.5785   10.8310   17.1268 H     163  UNL163      0.1146
    651 H           3.7458   11.2300   16.0650 H     163  UNL163      0.1146
    652 H           3.5077    9.6703   16.4646 H     163  UNL163      0.1146
    653 N           2.8913   10.5325   18.3703 N.3   164  UNL164     -0.3437
    654 H           2.4496   10.8231   19.2414 H     164  UNL164      0.1146
    655 H           3.6169   11.2221   18.1796 H     164  UNL164      0.1146
    656 H           3.3788    9.6624   18.5792 H     164  UNL164      0.1146
    657 N           2.8913   10.5365   20.4790 N.3   165  UNL165     -0.3437
    658 H           2.4496   10.8271   21.3501 H     165  UNL165      0.1146
    659 H           3.6169   11.2261   20.2883 H     165  UNL165      0.1146
    660 H           3.3788    9.6664   20.6879 H     165  UNL165      0.1146
    661 N           1.0342   12.6989   -0.6956 N.3   166  UNL166     -0.3437
    662 H           0.4820   13.5525   -0.6260 H     166  UNL166      0.1146
    663 H           1.9701   12.9428   -0.3747 H     166  UNL166      0.1146
    664 H           0.6550   12.0614    0.0032 H     166  UNL166      0.1146
    665 N           3.0998   12.9999    1.4577 N.3   167  UNL167     -0.3437
    666 H           2.4784   13.3227    2.1979 H     167  UNL167      0.1146
    667 H           4.0060   12.8475    1.8983 H     167  UNL167      0.1146
    668 H           2.7602   12.0778    1.1880 H     167  UNL167      0.1146
    669 N           2.8578   12.6584    3.9129 N.3   168  UNL168     -0.3437
    670 H           3.4862   12.1156    3.3223 H     168  UNL168      0.1146
    671 H           3.4408   13.0682    4.6413 H     168  UNL168      0.1146
    672 H           2.5361   13.4370    3.3395 H     168  UNL168      0.1146
    673 N           3.1331   13.0202    5.7030 N.3   169  UNL169     -0.3437
    674 H           3.8118   12.2602    5.7159 H     169  UNL169      0.1146
    675 H           2.2208   12.5802    5.5911 H     169  UNL169      0.1146
    676 H           3.1396   13.4185    6.6409 H     169  UNL169      0.1146
    677 N           3.0721   13.0002    8.2221 N.3   170  UNL170     -0.3437
    678 H           3.6040   12.9643    7.3537 H     170  UNL170      0.1146
    679 H           2.1267   13.2771    7.9612 H     170  UNL170      0.1146
    680 H           3.0025   12.0375    8.5489 H     170  UNL170      0.1146
    681 N           3.2782   12.9999   10.2581 N.3   171  UNL171     -0.3437
    682 H           2.9208   13.3227    9.3601 H     171  UNL171      0.1146
    683 H           2.4609   12.8475   10.8473 H     171  UNL171      0.1146
    684 H           3.6766   12.0778   10.0868 H     171  UNL171      0.1146
    685 N           2.8952   12.7923   12.0284 N.3   172  UNL172     -0.3437
    686 H           2.4535   13.0829   12.8995 H     172  UNL172      0.1146
    687 H           3.6208   13.4819   11.8377 H     172  UNL172      0.1146
    688 H           3.3827   11.9222   12.2373 H     172  UNL172      0.1146
    689 N           2.8913   12.6364   14.2254 N.3   173  UNL173     -0.3437
    690 H           2.4496   13.4662   14.6188 H     173  UNL173      0.1146
    691 H           3.6169   12.9762   13.5958 H     173  UNL173      0.1146
    692 H           3.3788   12.1848   14.9979 H     173  UNL173      0.1146
    693 N           2.8913   13.0823   16.2984 N.3   174  UNL174     -0.3437
    694 H           2.4496   12.6549   17.1111 H     174  UNL174      0.1146
    695 H           3.6169   13.6973   16.6640 H     174  UNL174      0.1146
    696 H           3.3788   12.3292   15.8151 H     174  UNL174      0.1146
    697 N           2.8470   12.9945   18.5541 N.3   175  UNL175     -0.3437
    698 H           2.9748   12.3522   17.7734 H     175  UNL175      0.1146
    699 H           2.7519   12.4117   19.3846 H     175  UNL175      0.1146
    700 H           3.7316   13.4895   18.6583 H     175  UNL175      0.1146
    701 N           1.2252   12.9250   20.4790 N.3   176  UNL176     -0.3437
    702 H           1.7511   12.8696   21.3501 H     176  UNL176      0.1146
    703 H           0.8973   11.9792   20.2883 H     176  UNL176      0.1146
    704 H           0.3927   13.4741   20.6879 H     176  UNL176      0.1146
    705 N           3.2365   15.0305   -0.3085 N.3   177  UNL177     -0.3437
    706 H           3.2289   15.3211   -1.2851 H     177  UNL177      0.1146
    707 H           2.6794   15.7201    0.1941 H     177  UNL177      0.1146
    708 H           2.7075   14.1604   -0.2702 H     177  UNL177      0.1146
    709 N           2.8913   15.0520    1.4690 N.3   178  UNL178     -0.3437
    710 H           2.4496   15.3426    2.3401 H     178  UNL178      0.1146
    711 H           3.6169   15.7416    1.2783 H     178  UNL178      0.1146
    712 H           3.3788   14.1819    1.6779 H     178  UNL178      0.1146
    713 N           2.8893   16.3151    3.9072 N.3   179  UNL179     -0.3437
    714 H           2.4476   15.4433    3.6187 H     179  UNL179      0.1146
    715 H           3.6149   16.0552    4.5738 H     179  UNL179      0.1146
    716 H           3.3768   16.6685    3.0851 H     179  UNL179      0.1146
    717 N           2.8893   15.0520    5.6982 N.3   180  UNL180     -0.3437
    718 H           2.4476   15.3426    6.5693 H     180  UNL180      0.1146
    719 H           3.6149   15.7416    5.5075 H     180  UNL180      0.1146
    720 H           3.3768   14.1819    5.9071 H     180  UNL180      0.1146
    721 N           3.3556   16.0930    8.1363 N.3   181  UNL181     -0.3437
    722 H           3.3480   16.3836    7.1597 H     181  UNL181      0.1146
    723 H           2.7986   16.7826    8.6389 H     181  UNL181      0.1146
    724 H           2.8266   15.2229    8.1746 H     181  UNL181      0.1146
    725 N           2.8952   15.0520    9.9216 N.3   182  UNL182     -0.3437
    726 H           2.4535   15.3426   10.7927 H     182  UNL182      0.1146
    727 H           3.6208   15.7416    9.7309 H     182  UNL182      0.1146
    728 H           3.3827   14.1819   10.1305 H     182  UNL182      0.1146
    729 N           2.8913   15.9589   12.4078 N.3   183  UNL183     -0.3437
    730 H           2.4496   16.4829   11.6536 H     183  UNL183      0.1146
    731 H           3.6169   15.3934   11.9694 H     183  UNL183      0.1146
    732 H           3.3788   16.6470   12.9798 H     183  UNL183      0.1146
    733 N           3.2642   15.0076   14.1430 N.3   184  UNL184     -0.3437
    734 H           3.5232   14.5467   15.0141 H     184  UNL184      0.1146
    735 H           2.3030   14.7282   13.9523 H     184  UNL184      0.1146
    736 H           3.2306   16.0044   14.3519 H     184  UNL184      0.1146
    737 N           3.0195   16.0930   16.7656 N.3   185  UNL185     -0.3437
    738 H           3.9817   16.3836   16.5981 H     185  UNL185      0.1146
    739 H           2.4325   16.7826   16.2984 H     185  UNL185      0.1146
    740 H           2.8951   15.2229   16.2500 H     185  UNL185      0.1146
    741 N           2.8913   15.0520   18.3703 N.3   186  UNL186     -0.3437
    742 H           2.4496   15.3426   19.2414 H     186  UNL186      0.1146
    743 H           3.6169   15.7416   18.1796 H     186  UNL186      0.1146
    744 H           3.3788   14.1819   18.5792 H     186  UNL186      0.1146
    745 N           3.1091   16.0930   21.4259 N.3   187  UNL187     -0.3437
    746 H           2.1747   16.3836   21.7102 H     187  UNL187      0.1146
    747 H           3.7491   16.7826   21.8174 H     187  UNL187      0.1146
    748 H           3.2959   15.2229   21.9223 H     187  UNL187      0.1146
    749 N           4.9147   -0.8693   -0.5912 N.3   188  UNL188     -0.3437
    750 H           4.4730   -0.1375   -0.0364 H     188  UNL188      0.1146
    751 H           5.6403   -0.4078   -1.1380 H     188  UNL188      0.1146
    752 H           5.4022   -1.4693    0.0726 H     188  UNL188      0.1146
    753 N           4.9167   -0.5925    6.0976 N.3   189  UNL189     -0.3437
    754 H           4.4750   -1.2506    5.4572 H     189  UNL189      0.1146
    755 H           5.6423   -1.1176    6.5836 H     189  UNL189      0.1146
    756 H           5.4042    0.0846    5.5125 H     189  UNL189      0.1146
    757 N           5.0909   -0.7334   16.7398 N.3   190  UNL190     -0.3437
    758 H           5.9192   -1.3270   16.7377 H     190  UNL190      0.1146
    759 H           5.4169    0.2045   16.5110 H     190  UNL190      0.1146
    760 H           4.5267   -1.0358   15.9469 H     190  UNL190      0.1146
    761 N           5.3365   -0.5233   18.5708 N.3   191  UNL191     -0.3437
    762 H           4.5044   -0.2005   18.0790 H     191  UNL191      0.1146
    763 H           5.0503   -0.6757   19.5369 H     191  UNL191      0.1146
    764 H           5.5468   -1.4454   18.1915 H     191  UNL191      0.1146
    765 N           5.0750   -0.5791   21.9124 N.3   192  UNL192     -0.3437
    766 H           4.6251   -1.4934   21.9103 H     192  UNL192      0.1146
    767 H           6.0537   -0.7471   21.6836 H     192  UNL192      0.1146
    768 H           4.6843   -0.0721   21.1195 H     192  UNL192      0.1146
    769 N           4.9127    1.6782   -0.5912 N.3   193  UNL193     -0.3437
    770 H           4.4710    1.2508    0.2216 H     193  UNL193      0.1146
    771 H           5.6383    2.2932   -0.2256 H     193  UNL193      0.1146
    772 H           5.4002    0.9251   -1.0745 H     193  UNL193      0.1146
    773 N           5.0390   -0.4419    1.9789 N.3   194  UNL194     -0.3437
    774 H           6.0012   -0.1513    1.8114 H     194  UNL194      0.1146
    775 H           4.4520    0.2477    1.5117 H     194  UNL194      0.1146
    776 H           4.9146   -1.3120    1.4633 H     194  UNL194      0.1146
    777 N           4.9127   -0.5627    3.6380 N.3   195  UNL195     -0.3437
    778 H           4.4710    0.1691    4.1928 H     195  UNL195      0.1146
    779 H           5.6383   -0.1012    3.0912 H     195  UNL195      0.1146
    780 H           5.4002   -1.1627    4.3018 H     195  UNL195      0.1146
    781 N           4.9167    1.6672    6.0976 N.3   196  UNL196     -0.3437
    782 H           4.4750    1.0091    5.4572 H     196  UNL196      0.1146
    783 H           5.6423    1.1422    6.5836 H     196  UNL196      0.1146
    784 H           5.4042    2.3443    5.5125 H     196  UNL196      0.1146
    785 N           4.9206   -0.2510    8.1325 N.3   197  UNL197     -0.3437
    786 H           4.4789   -1.1228    7.8440 H     197  UNL197      0.1146
    787 H           5.6462   -0.5110    8.7991 H     197  UNL197      0.1146
    788 H           5.4081    0.1023    7.3104 H     197  UNL197      0.1146
    789 N           4.9147   -0.3668    9.9721 N.3   198  UNL198     -0.3437
    790 H           4.4730   -0.7942   10.7849 H     198  UNL198      0.1146
    791 H           5.6403    0.2483   10.3377 H     198  UNL198      0.1146
    792 H           5.4022   -1.1199    9.4888 H     198  UNL198      0.1146
    793 N           4.9206   -0.3668   12.0769 N.3   199  UNL199     -0.3437
    794 H           4.4789   -0.7942   12.8897 H     199  UNL199      0.1146
    795 H           5.6462    0.2483   12.4425 H     199  UNL199      0.1146
    796 H           5.4081   -1.1199   11.5937 H     199  UNL199      0.1146
    797 N           4.9206   -0.2198   14.4822 N.3   200  UNL200     -0.3437
    798 H           4.4789   -1.0916   14.1937 H     200  UNL200      0.1146
    799 H           5.6462   -0.4797   15.1488 H     200  UNL200      0.1146
    800 H           5.4081    0.1336   13.6601 H     200  UNL200      0.1146
    801 N           4.9140    1.5132   16.7597 N.3   201  UNL201     -0.3437
    802 H           5.8762    1.8038   16.5922 H     201  UNL201      0.1146
    803 H           4.3270    2.2028   16.2925 H     201  UNL201      0.1146
    804 H           4.7896    0.6431   16.2441 H     201  UNL201      0.1146
    805 N           4.8290    1.5224   18.4929 N.3   202  UNL202     -0.3437
    806 H           4.9667    0.9288   19.3097 H     202  UNL202      0.1146
    807 H           5.1081    2.4603   18.7770 H     202  UNL202      0.1146
    808 H           5.5187    1.2200   17.8065 H     202  UNL202      0.1146
    809 N           5.0996    1.3934   21.9124 N.3   203  UNL203     -0.3437
    810 H           5.8208    2.1133   21.9103 H     203  UNL203      0.1146
    811 H           4.2277    1.8687   21.6836 H     203  UNL203      0.1146
    812 H           5.3055    0.7873   21.1195 H     203  UNL203      0.1146
    813 N           5.1144    3.9841   -0.2004 N.3   204  UNL204     -0.3437
    814 H           4.8790    3.0391    0.0996 H     204  UNL204      0.1146
    815 H           5.9974    3.9075   -0.7031 H     204  UNL204      0.1146
    816 H           4.4160    4.2398   -0.8970 H     204  UNL204      0.1146
    817 N           4.9167    1.9203    1.5136 N.3   205  UNL205     -0.3437
    818 H           4.4750    1.4929    2.3264 H     205  UNL205      0.1146
    819 H           5.6423    2.5353    1.8792 H     205  UNL205      0.1146
    820 H           5.4042    1.1672    1.0304 H     205  UNL205      0.1146
    821 N           4.9127    2.0048    3.9169 N.3   206  UNL206     -0.3437
    822 H           4.4710    1.1330    3.6284 H     206  UNL206      0.1146
    823 H           5.6383    1.7449    4.5835 H     206  UNL206      0.1146
    824 H           5.4002    2.3581    3.0948 H     206  UNL206      0.1146
    825 N           4.9127    3.6131    5.7748 N.3   207  UNL207     -0.3437
    826 H           4.4710    4.4429    6.1681 H     207  UNL207      0.1146
    827 H           5.6383    3.9529    5.1451 H     207  UNL207      0.1146
    828 H           5.4002    3.1615    6.5473 H     207  UNL207      0.1146
    829 N           4.9206    1.5277    7.9793 N.3   208  UNL208     -0.3437
    830 H           4.4789    2.4459    7.9706 H     208  UNL208      0.1146
    831 H           5.6462    1.5582    7.2645 H     208  UNL208      0.1146
    832 H           5.4081    1.4590    8.8715 H     208  UNL208      0.1146
    833 N           4.9186    1.6619    9.9682 N.3   209  UNL209     -0.3437
    834 H           4.4769    2.3937   10.5230 H     209  UNL209      0.1146
    835 H           5.6442    2.1233    9.4214 H     209  UNL209      0.1146
    836 H           5.4061    1.0618   10.6320 H     209  UNL209      0.1146
    837 N           4.9088    1.9516   12.0809 N.3   210  UNL210     -0.3437
    838 H           4.4671    1.5242   12.8936 H     210  UNL210      0.1146
    839 H           5.6344    2.5666   12.4465 H     210  UNL210      0.1146
    840 H           5.3963    1.1985   11.5976 H     210  UNL210      0.1146
    841 N           4.9206    1.9892   14.4763 N.3   211  UNL211     -0.3437
    842 H           4.4789    1.1174   14.1878 H     211  UNL211      0.1146
    843 H           5.6462    1.7292   15.1429 H     211  UNL211      0.1146
    844 H           5.4081    2.3425   13.6542 H     211  UNL211      0.1146
    845 N           5.1154    3.4991   16.4263 N.3   212  UNL212     -0.3437
    846 H           4.4940    3.9980   15.7913 H     212  UNL212      0.1146
    847 H           6.0216    3.9592   16.3517 H     212  UNL212      0.1146
    848 H           4.7758    3.6985   17.3661 H     212  UNL212      0.1146
    849 N           5.0367    3.5502   18.7282 N.3   213  UNL213     -0.3437
    850 H           5.4926    4.2246   19.3411 H     213  UNL213      0.1146
    851 H           4.2295    4.0306   18.3331 H     213  UNL213      0.1146
    852 H           5.6793    3.3964   17.9524 H     213  UNL213      0.1146
    853 N           5.1045    3.7348   21.4291 N.3   214  UNL214     -0.3437
    854 H           4.3907    4.4101   21.6987 H     214  UNL214      0.1146
    855 H           5.9914    4.1198   21.7510 H     214  UNL214      0.1146
    856 H           4.9357    2.9058   21.9971 H     214  UNL214      0.1146
    857 N           4.9167    5.8748   -0.5632 N.3   215  UNL215     -0.3437
    858 H           4.4750    6.7046   -0.1698 H     215  UNL215      0.1146
    859 H           5.6423    6.2146   -1.1928 H     215  UNL215      0.1146
    860 H           5.4042    5.4232    0.2093 H     215  UNL215      0.1146
    861 N           5.1167    4.3409    1.5724 N.3   216  UNL216     -0.3437
    862 H           6.0190    4.5142    2.0131 H     216  UNL216      0.1146
    863 H           5.2761    3.6046    0.8862 H     216  UNL216      0.1146
    864 H           4.5262    3.9294    2.2937 H     216  UNL216      0.1146
    865 N           5.3952    4.0072    3.7864 N.3   217  UNL217     -0.3437
    866 H           4.9617    4.2978    2.9113 H     217  UNL217      0.1146
    867 H           5.1138    4.6968    4.4819 H     217  UNL217      0.1146
    868 H           4.9361    3.1371    4.0520 H     217  UNL217      0.1146
    869 N           4.9127    5.8689    5.7826 N.3   218  UNL218     -0.3437
    870 H           4.4710    6.6987    6.1760 H     218  UNL218      0.1146
    871 H           5.6383    6.2087    5.1530 H     218  UNL218      0.1146
    872 H           5.4002    5.4173    6.5551 H     218  UNL218      0.1146
    873 N           4.9206    4.1981    8.1325 N.3   219  UNL219     -0.3437
    874 H           4.4789    3.3263    7.8440 H     219  UNL219      0.1146
    875 H           5.6462    3.9382    8.7991 H     219  UNL219      0.1146
    876 H           5.4081    4.5515    7.3104 H     219  UNL219      0.1146
    877 N           4.9167    4.2293   10.2530 N.3   220  UNL220     -0.3437
    878 H           4.4750    3.3576    9.9645 H     220  UNL220      0.1146
    879 H           5.6423    3.9694   10.9196 H     220  UNL220      0.1146
    880 H           5.4042    4.5827    9.4309 H     220  UNL220      0.1146
    881 N           4.9167    4.2918   12.3617 N.3   221  UNL221     -0.3437
    882 H           4.4750    3.4201   12.0732 H     221  UNL221      0.1146
    883 H           5.6423    4.0319   13.0283 H     221  UNL221      0.1146
    884 H           5.4042    4.6452   11.5396 H     221  UNL221      0.1146
    885 N           4.9206    4.2918   14.4822 N.3   222  UNL222     -0.3437
    886 H           4.4789    3.4201   14.1937 H     222  UNL222      0.1146
    887 H           5.6462    4.0319   15.1488 H     222  UNL222      0.1146
    888 H           5.4081    4.6452   13.6601 H     222  UNL222      0.1146
    889 N           4.8724    5.9242   16.3296 N.3   223  UNL223     -0.3437
    890 H           5.0001    5.5410   17.2652 H     223  UNL223      0.1146
    891 H           4.7773    6.9317   16.4494 H     223  UNL223      0.1146
    892 H           5.7570    5.7813   15.8444 H     223  UNL223      0.1146
    893 N           4.9206    5.8768   18.4625 N.3   224  UNL224     -0.3437
    894 H           4.4789    6.7065   18.8558 H     224  UNL224      0.1146
    895 H           5.6462    6.2166   17.8328 H     224  UNL224      0.1146
    896 H           5.4081    5.4251   19.2350 H     224  UNL224      0.1146
    897 N           5.1253    6.1028   21.4291 N.3   225  UNL225     -0.3437
    898 H           5.5825    5.2330   21.6987 H     225  UNL225      0.1146
    899 H           4.1616    6.0251   21.7510 H     225  UNL225      0.1146
    900 H           5.5530    6.8328   21.9971 H     225  UNL225      0.1146
    901 N           5.3365    8.4882   -0.4412 N.3   226  UNL226     -0.3437
    902 H           4.5044    8.8111   -0.9330 H     226  UNL226      0.1146
    903 H           5.0503    8.3359    0.5249 H     226  UNL226      0.1146
    904 H           5.5468    7.5662   -0.8204 H     226  UNL226      0.1146
    905 N           4.8724    6.1615    1.7828 N.3   227  UNL227     -0.3437
    906 H           5.0001    7.0217    2.3141 H     227  UNL227      0.1146
    907 H           4.7773    6.4447    0.8085 H     227  UNL227      0.1146
    908 H           5.7570    5.6595    1.8442 H     227  UNL227      0.1146
    909 N           4.9127    6.2943    3.5797 N.3   228  UNL228     -0.3437
    910 H           4.4710    6.5849    4.4508 H     228  UNL228      0.1146
    911 H           5.6383    6.9839    3.3890 H     228  UNL228      0.1146
    912 H           5.4002    5.4242    3.7886 H     228  UNL228      0.1146
    913 N           5.1328    8.4347    5.9312 N.3   229  UNL229     -0.3437
    914 H           5.4648    7.7574    6.6163 H     229  UNL229      0.1146
    915 H           5.2042    7.9752    5.0245 H     229  UNL229      0.1146
    916 H           4.1362    8.5497    6.1101 H     229  UNL229      0.1146
    917 N           4.9206    6.2943    7.8031 N.3   230  UNL230     -0.3437
    918 H           4.4789    6.5849    8.6742 H     230  UNL230      0.1146
    919 H           5.6462    6.9839    7.6124 H     230  UNL230      0.1146
    920 H           5.4081    5.4242    8.0120 H     230  UNL230      0.1146
    921 N           4.9206    6.3256    9.9177 N.3   231  UNL231     -0.3437
    922 H           4.4789    6.6162   10.7888 H     231  UNL231      0.1146
    923 H           5.6462    7.0152    9.7270 H     231  UNL231      0.1146
    924 H           5.4081    5.4555   10.1266 H     231  UNL231      0.1146
    925 N           4.9088    6.2318   12.0323 N.3   232  UNL232     -0.3437
    926 H           4.4671    6.5224   12.9034 H     232  UNL232      0.1146
    927 H           5.6344    6.9214   11.8416 H     232  UNL232      0.1146
    928 H           5.3963    5.3617   12.2412 H     232  UNL232      0.1146
    929 N           4.8912    6.2535   14.1756 N.3   233  UNL233     -0.3437
    930 H           4.9496    5.5962   14.9521 H     233  UNL233      0.1146
    931 H           4.7663    7.1737   14.5953 H     233  UNL233      0.1146
    932 H           5.8153    6.2639   13.7462 H     233  UNL233      0.1146
    933 N           4.8802    8.1479   16.5753 N.3   234  UNL234     -0.3437
    934 H           5.0079    9.0080   17.1066 H     234  UNL234      0.1146
    935 H           4.7851    8.4310   15.6011 H     234  UNL234      0.1146
    936 H           5.7648    7.6458   16.6368 H     234  UNL234      0.1146
    937 N           5.1154    8.4922   18.3648 N.3   235  UNL235     -0.3437
    938 H           4.4940    8.8150   19.1050 H     235  UNL235      0.1146
    939 H           6.0216    8.3398   18.8054 H     235  UNL235      0.1146
    940 H           4.7758    7.5701   18.0952 H     235  UNL235      0.1146
    941 N           5.1625    8.2937   21.3666 N.3   236  UNL236     -0.3437
    942 H           4.3793    7.7002   21.6362 H     236  UNL236      0.1146
    943 H           4.9279    9.2317   21.6885 H     236  UNL236      0.1146
    944 H           5.9527    7.9914   21.9346 H     236  UNL236      0.1146
    945 N           5.3751   10.5365   -0.3124 N.3   237  UNL237     -0.3437
    946 H           5.3675   10.8271   -1.2890 H     237  UNL237      0.1146
    947 H           4.8181   11.2261    0.1902 H     237  UNL237      0.1146
    948 H           4.8461    9.6664   -0.2741 H     237  UNL237      0.1146
    949 N           4.9088    8.4473    1.8503 N.3   238  UNL238     -0.3437
    950 H           4.4671    8.9712    1.0962 H     238  UNL238      0.1146
    951 H           5.6344    7.8818    1.4120 H     238  UNL238      0.1146
    952 H           5.3963    9.1353    2.4224 H     238  UNL238      0.1146
    953 N           4.9620   10.5457    4.0638 N.3   239  UNL239     -0.3437
    954 H           5.7903    9.9521    4.0618 H     239  UNL239      0.1146
    955 H           5.2880   11.4836    3.8350 H     239  UNL239      0.1146
    956 H           4.3978   10.2433    3.2710 H     239  UNL239      0.1146
    957 N           5.3751   10.5365    6.0217 N.3   240  UNL240     -0.3437
    958 H           5.3675   10.8271    5.0450 H     240  UNL240      0.1146
    959 H           4.8181   11.2261    6.5243 H     240  UNL240      0.1146
    960 H           4.8461    9.6664    6.0600 H     240  UNL240      0.1146
    961 N           4.9167    8.3669    7.8874 N.3   241  UNL241     -0.3437
    962 H           4.4750    9.1967    8.2808 H     241  UNL241      0.1146
    963 H           5.6423    8.7067    7.2578 H     241  UNL241      0.1146
    964 H           5.4042    7.9153    8.6599 H     241  UNL241      0.1146
    965 N           5.1137    8.4188   10.3682 N.3   242  UNL242     -0.3437
    966 H           6.0264    8.5570    9.9366 H     242  UNL242      0.1146
    967 H           4.7899    9.3450   10.6432 H     242  UNL242      0.1146
    968 H           4.4923    8.1149    9.6199 H     242  UNL242      0.1146
    969 N           4.9206   10.4844   12.4628 N.3   243  UNL243     -0.3437
    970 H           4.4789   10.6262   11.5555 H     243  UNL243      0.1146
    971 H           5.6462    9.7842   12.3156 H     243  UNL243      0.1146
    972 H           5.4081   11.3533   12.6767 H     243  UNL243      0.1146
    973 N           4.9088   10.5306   14.1391 N.3   244  UNL244     -0.3437
    974 H           4.4671   10.8212   15.0102 H     244  UNL244      0.1146
    975 H           5.6344   11.2202   13.9484 H     244  UNL244      0.1146
    976 H           5.3963    9.6605   14.3480 H     244  UNL244      0.1146
    977 N           4.9167   10.5384   16.2498 N.3   245  UNL245     -0.3437
    978 H           4.4750   10.8290   17.1209 H     245  UNL245      0.1146
    979 H           5.6423   11.2280   16.0591 H     245  UNL245      0.1146
    980 H           5.4042    9.6683   16.4587 H     245  UNL245      0.1146
    981 N           4.9206   10.3825   18.4625 N.3   246  UNL246     -0.3437
    982 H           4.4789   11.2123   18.8558 H     246  UNL246      0.1146
    983 H           5.6462   10.7223   17.8328 H     246  UNL246      0.1146
    984 H           5.4081    9.9309   19.2350 H     246  UNL246      0.1146
    985 N           4.9600   10.5574   22.0061 N.3   247  UNL247     -0.3437
    986 H           5.7883    9.9638   22.0041 H     247  UNL247      0.1146
    987 H           5.2861   11.4953   21.7773 H     247  UNL247      0.1146
    988 H           4.3958   10.2550   21.2133 H     247  UNL247      0.1146
    989 N           4.9127   10.9123    1.5156 N.3   248  UNL248     -0.3437
    990 H           4.4710   10.4849    2.3284 H     248  UNL248      0.1146
    991 H           5.6383   11.5274    1.8812 H     248  UNL248      0.1146
    992 H           5.4002   10.1592    1.0323 H     248  UNL248      0.1146
    993 N           4.9127   12.9502    3.9849 N.3   249  UNL249     -0.3437
    994 H           4.4710   12.2921    3.3445 H     249  UNL249      0.1146
    995 H           5.6383   12.4252    4.4710 H     249  UNL249      0.1146
    996 H           5.4002   13.6273    3.3999 H     249  UNL249      0.1146
    997 N           4.8078   12.7884    5.8941 N.3   250  UNL250     -0.3437
    998 H           5.1306   13.0790    6.8159 H     250  UNL250      0.1146
    999 H           5.1725   13.4780    5.2385 H     250  UNL250      0.1146
   1000 H           5.2960   11.9183    5.6869 H     250  UNL250      0.1146
   1001 N           4.9088   10.5666    7.9832 N.3   251  UNL251     -0.3437
   1002 H           4.4671   11.4848    7.9745 H     251  UNL251      0.1146
   1003 H           5.6344   10.5971    7.2684 H     251  UNL251      0.1146
   1004 H           5.3963   10.4979    8.8754 H     251  UNL251      0.1146
   1005 N           5.3751   12.7923   10.2509 N.3   252  UNL252     -0.3437
   1006 H           5.3675   13.0829    9.2743 H     252  UNL252      0.1146
   1007 H           4.8181   13.4819   10.7535 H     252  UNL252      0.1146
   1008 H           4.8461   11.9222   10.2892 H     252  UNL252      0.1146
   1009 N           5.1213   12.9999   12.0249 N.3   253  UNL253     -0.3437
   1010 H           4.4998   13.3227   12.7651 H     253  UNL253      0.1146
   1011 H           6.0275   12.8475   12.4655 H     253  UNL253      0.1146
   1012 H           4.7816   12.0778   11.7552 H     253  UNL253      0.1146
   1013 N           5.1328   12.9425   14.3741 N.3   254  UNL254     -0.3437
   1014 H           5.4648   12.2651   15.0592 H     254  UNL254      0.1146
   1015 H           5.2042   12.4829   13.4674 H     254  UNL254      0.1146
   1016 H           4.1362   13.0575   14.5529 H     254  UNL254      0.1146
   1017 N           4.8724   12.6556   16.5793 N.3   255  UNL255     -0.3437
   1018 H           5.0001   13.5157   17.1105 H     255  UNL255      0.1146
   1019 H           4.7773   12.9387   15.6050 H     255  UNL255      0.1146
   1020 H           5.7570   12.1535   16.6407 H     255  UNL255      0.1146
   1021 N           4.9088   12.6503   18.7477 N.3   256  UNL256     -0.3437
   1022 H           4.4671   13.1743   17.9936 H     256  UNL256      0.1146
   1023 H           5.6344   12.0849   18.3094 H     256  UNL256      0.1146
   1024 H           5.3963   13.3384   19.3198 H     256  UNL256      0.1146
   1025 N           3.1659   12.7956   21.4555 N.3   257  UNL257     -0.3437
   1026 H           2.8621   13.7140   21.7758 H     257  UNL257      0.1146
   1027 H           4.0687   12.6285   21.8976 H     257  UNL257      0.1146
   1028 H           2.5210   12.1254   21.8718 H     257  UNL257      0.1146
   1029 N           5.0904   16.3474   -0.6102 N.3   258  UNL258     -0.3437
   1030 H           4.2844   16.2975    0.0112 H     258  UNL258      0.1146
   1031 H           5.9092   16.3922   -0.0052 H     258  UNL258      0.1146
   1032 H           5.1383   15.4450   -1.0811 H     258  UNL258      0.1146
   1033 N           5.0924   16.3162    1.5005 N.3   259  UNL259     -0.3437
   1034 H           4.2864   16.2663    2.1219 H     259  UNL259      0.1146
   1035 H           5.9112   16.3610    2.1055 H     259  UNL259      0.1146
   1036 H           5.1403   15.4137    1.0296 H     259  UNL259      0.1146
   1037 N           4.9147   16.3151    3.9072 N.3   260  UNL260     -0.3437
   1038 H           4.4730   15.4433    3.6187 H     260  UNL260      0.1146
   1039 H           5.6403   16.0552    4.5738 H     260  UNL260      0.1146
   1040 H           5.4022   16.6685    3.0851 H     260  UNL260      0.1146
   1041 N           4.9186   15.0520    5.6982 N.3   261  UNL261     -0.3437
   1042 H           4.4769   15.3426    6.5693 H     261  UNL261      0.1146
   1043 H           5.6442   15.7416    5.5075 H     261  UNL261      0.1146
   1044 H           5.4061   14.1819    5.9071 H     261  UNL261      0.1146
   1045 N           4.7917   15.0520    7.8070 N.3   262  UNL262     -0.3437
   1046 H           4.3500   15.3426    8.6781 H     262  UNL262      0.1146
   1047 H           5.5173   15.7416    7.6163 H     262  UNL262      0.1146
   1048 H           5.2792   14.1819    8.0159 H     262  UNL262      0.1146
   1049 N           5.0448   16.0930   10.4276 N.3   263  UNL263     -0.3437
   1050 H           6.0071   16.3836   10.2601 H     263  UNL263      0.1146
   1051 H           4.4578   16.7826    9.9604 H     263  UNL263      0.1146
   1052 H           4.9205   15.2229    9.9120 H     263  UNL263      0.1146
   1053 N           4.9088   15.0520   12.0245 N.3   264  UNL264     -0.3437
   1054 H           4.4671   15.3426   12.8956 H     264  UNL264      0.1146
   1055 H           5.6344   15.7416   11.8338 H     264  UNL264      0.1146
   1056 H           5.3963   14.1819   12.2334 H     264  UNL264      0.1146
   1057 N           5.2618   15.0774   14.4762 N.3   265  UNL265     -0.3437
   1058 H           5.2542   15.3680   13.4996 H     265  UNL265      0.1146
   1059 H           4.7048   15.7670   14.9788 H     265  UNL265      0.1146
   1060 H           4.7328   14.2073   14.5145 H     265  UNL265      0.1146
   1061 N           4.9127   15.0520   16.2498 N.3   266  UNL266     -0.3437
   1062 H           4.4710   15.3426   17.1209 H     266  UNL266      0.1146
   1063 H           5.6383   15.7416   16.0591 H     266  UNL266      0.1146
   1064 H           5.4002   14.1819   16.4587 H     266  UNL266      0.1146
   1065 N           5.2618   15.0618   18.7055 N.3   267  UNL267     -0.3437
   1066 H           5.2542   15.3524   17.7288 H     267  UNL267      0.1146
   1067 H           4.7048   15.7514   19.2080 H     267  UNL267      0.1146
   1068 H           4.7328   14.1917   18.7437 H     267  UNL267      0.1146
   1069 N           4.9147   15.0461   20.4810 N.3   268  UNL268     -0.3437
   1070 H           4.4730   15.3367   21.3521 H     268  UNL268      0.1146
   1071 H           5.6403   15.7357   20.2903 H     268  UNL268      0.1146
   1072 H           5.4022   14.1760   20.6899 H     268  UNL268      0.1146
   1073 N           7.3060   -0.5982   -0.2167 N.3   269  UNL269     -0.3437
   1074 H           7.1124   -1.5838   -0.0452 H     269  UNL269      0.1146
   1075 H           7.7235   -0.5512   -1.1450 H     269  UNL269      0.1146
   1076 H           6.3976   -0.1429   -0.2940 H     269  UNL269      0.1146
   1077 N           6.9459   -0.5816    1.5097 N.3   270  UNL270     -0.3437
   1078 H           6.5042   -1.0090    2.3225 H     270  UNL270      0.1146
   1079 H           7.6715    0.0335    1.8753 H     270  UNL270      0.1146
   1080 H           7.4334   -1.3347    1.0265 H     270  UNL270      0.1146
   1081 N           6.9381   -0.5777    3.6263 N.3   271  UNL271     -0.3437
   1082 H           6.4964   -1.0051    4.4391 H     271  UNL271      0.1146
   1083 H           7.6637    0.0374    3.9919 H     271  UNL271      0.1146
   1084 H           7.4256   -1.3308    3.1431 H     271  UNL271      0.1146
   1085 N           6.9440   -0.8693    5.7429 N.3   272  UNL272     -0.3437
   1086 H           6.5023   -0.1375    6.2976 H     272  UNL272      0.1146
   1087 H           7.6696   -0.4078    5.1960 H     272  UNL272      0.1146
   1088 H           7.4315   -1.4693    6.4066 H     272  UNL272      0.1146
   1089 N           7.0644   -0.7426   16.7714 N.3   273  UNL273     -0.3437
   1090 H           8.0266   -0.4520   16.6040 H     273  UNL273      0.1146
   1091 H           6.4773   -0.0530   16.3042 H     273  UNL273      0.1146
   1092 H           6.9400   -1.6127   16.2558 H     273  UNL273      0.1146
   1093 N           6.9459    1.3924   -0.5971 N.3   274  UNL274     -0.3437
   1094 H           6.5042    2.1242   -0.0423 H     274  UNL274      0.1146
   1095 H           7.6715    1.8538   -1.1439 H     274  UNL274      0.1146
   1096 H           7.4334    0.7923    0.0667 H     274  UNL274      0.1146
   1097 N           6.9362    1.6801    1.5156 N.3   275  UNL275     -0.3437
   1098 H           6.4945    1.2527    2.3284 H     275  UNL275      0.1146
   1099 H           7.6618    2.2951    1.8812 H     275  UNL275      0.1146
   1100 H           7.4237    0.9270    1.0323 H     275  UNL275      0.1146
   1101 N           6.9459    1.6743    3.6263 N.3   276  UNL276     -0.3437
   1102 H           6.5042    1.2469    4.4391 H     276  UNL276      0.1146
   1103 H           7.6715    2.2893    3.9919 H     276  UNL276      0.1146
   1104 H           7.4334    0.9211    3.1431 H     276  UNL276      0.1146
   1105 N           6.9401    1.7294    6.0218 N.3   277  UNL277     -0.3437
   1106 H           6.4984    0.8576    5.7333 H     277  UNL277      0.1146
   1107 H           7.6657    1.4695    6.6884 H     277  UNL277      0.1146
   1108 H           7.4276    2.0828    5.1997 H     277  UNL277      0.1146
   1109 N           7.4005   -0.4419    8.1383 N.3   278  UNL278     -0.3437
   1110 H           7.3929   -0.1513    7.1616 H     278  UNL278      0.1146
   1111 H           6.8434    0.2477    8.6408 H     278  UNL278      0.1146
   1112 H           6.8715   -1.3120    8.1765 H     278  UNL278      0.1146
   1113 N           6.9420   -0.3668    9.9643 N.3   279  UNL279     -0.3437
   1114 H           6.5003   -0.7942   10.7770 H     279  UNL279      0.1146
   1115 H           7.6676    0.2483   10.3299 H     279  UNL279      0.1146
   1116 H           7.4295   -1.1199    9.4810 H     279  UNL279      0.1146
   1117 N           6.9420   -0.3355   12.0769 N.3   280  UNL280     -0.3437
   1118 H           6.5003   -0.7629   12.8897 H     280  UNL280      0.1146
   1119 H           7.6676    0.2795   12.4425 H     280  UNL280      0.1146
   1120 H           7.4295   -1.0886   11.5937 H     280  UNL280      0.1146
   1121 N           6.9362   -0.2667   14.4783 N.3   281  UNL281     -0.3437
   1122 H           6.4945   -1.1385   14.1898 H     281  UNL281      0.1146
   1123 H           7.6618   -0.5266   15.1449 H     281  UNL281      0.1146
   1124 H           7.4237    0.0867   13.6562 H     281  UNL281      0.1146
   1125 N           7.3568    1.7277   16.4351 N.3   282  UNL282     -0.3437
   1126 H           7.4495    1.1952   17.2989 H     282  UNL282      0.1146
   1127 H           7.2858    1.0394   15.6870 H     282  UNL282      0.1146
   1128 H           6.4474    2.1849   16.4832 H     282  UNL282      0.1146
   1129 N           7.1337   -0.6075   18.3223 N.3   283  UNL283     -0.3437
   1130 H           6.5816    0.2461   18.3918 H     283  UNL283      0.1146
   1131 H           8.0696   -0.3636   18.6431 H     283  UNL283      0.1146
   1132 H           6.7546   -1.2450   19.0210 H     283  UNL283      0.1146
   1133 N           7.3866   -0.4595   20.5565 N.3   284  UNL284     -0.3437
   1134 H           6.8639   -1.3200   20.7134 H     284  UNL284      0.1146
   1135 H           6.7546    0.1663   20.0592 H     284  UNL284      0.1146
   1136 H           7.5266   -0.0442   21.4764 H     284  UNL284      0.1146
   1137 N           6.9381    4.0117   -0.3564 N.3   285  UNL285     -0.3437
   1138 H           6.4964    3.0993   -0.4605 H     285  UNL285      0.1146
   1139 H           7.6637    3.8936    0.3493 H     285  UNL285      0.1146
   1140 H           7.4256    4.1894   -1.2334 H     285  UNL285      0.1146
   1141 N           6.8997    3.6703    1.5469 N.3   286  UNL286     -0.3437
   1142 H           7.0274    3.2871    2.4824 H     286  UNL286      0.1146
   1143 H           6.8046    4.6778    1.6666 H     286  UNL286      0.1146
   1144 H           7.7843    3.5275    1.0616 H     286  UNL286      0.1146
   1145 N           7.0158    4.2113    3.8905 N.3   287  UNL287     -0.3437
   1146 H           6.3943    3.9224    4.6447 H     287  UNL287      0.1146
   1147 H           7.9220    3.7937    4.0978 H     287  UNL287      0.1146
   1148 H           6.6761    3.7430    3.0517 H     287  UNL287      0.1146
   1149 N           7.1475    3.9880    6.1415 N.3   288  UNL288     -0.3437
   1150 H           6.9122    3.0430    6.4415 H     288  UNL288      0.1146
   1151 H           8.0306    3.9114    5.6388 H     288  UNL288      0.1146
   1152 H           6.4491    4.2437    5.4449 H     288  UNL288      0.1146
   1153 N           6.9420    1.7326    8.2316 N.3   289  UNL289     -0.3437
   1154 H           6.5003    1.8744    7.3244 H     289  UNL289      0.1146
   1155 H           7.6676    1.0324    8.0844 H     289  UNL289      0.1146
   1156 H           7.4295    2.6014    8.4456 H     289  UNL289      0.1146
   1157 N           6.9459    1.9735   10.2452 N.3   290  UNL290     -0.3437
   1158 H           6.5042    1.1017    9.9567 H     290  UNL290      0.1146
   1159 H           7.6715    1.7136   10.9118 H     290  UNL290      0.1146
   1160 H           7.4334    2.3269    9.4231 H     290  UNL290      0.1146
   1161 N           6.9537    1.8378   12.3826 N.3   291  UNL291     -0.3437
   1162 H           6.5120    0.9954   12.0171 H     291  UNL291      0.1146
   1163 H           7.6793    1.5191   13.0232 H     291  UNL291      0.1146
   1164 H           7.4412    2.2635   11.5956 H     291  UNL291      0.1146
   1165 N           6.9420    1.7013   14.5735 N.3   292  UNL292     -0.3437
   1166 H           6.5003    1.8431   13.6662 H     292  UNL292      0.1146
   1167 H           7.6676    1.0011   14.4263 H     292  UNL292      0.1146
   1168 H           7.4295    2.5702   14.7874 H     292  UNL292      0.1146
   1169 N           7.0722    3.7690   16.7675 N.3   293  UNL293     -0.3437
   1170 H           8.0344    4.0596   16.6001 H     293  UNL293      0.1146
   1171 H           6.4851    4.4586   16.3003 H     293  UNL293      0.1146
   1172 H           6.9478    2.8989   16.2519 H     293  UNL293      0.1146
   1173 N           6.9420    1.6877   18.3768 N.3   294  UNL294     -0.3437
   1174 H           6.5003    2.1035   19.1955 H     294  UNL294      0.1146
   1175 H           7.6676    2.3417   18.0865 H     294  UNL294      0.1146
   1176 H           7.4295    0.8579   18.7116 H     294  UNL294      0.1146
   1177 N           6.9381    1.7638   20.9135 N.3   295  UNL295     -0.3437
   1178 H           6.4964    1.9056   20.0062 H     295  UNL295      0.1146
   1179 H           7.6637    1.0636   20.7662 H     295  UNL295      0.1146
   1180 H           7.4256    2.6327   21.1274 H     295  UNL295      0.1146
   1181 N           6.9420    6.1898   -0.5990 N.3   296  UNL296     -0.3437
   1182 H           6.5003    5.7624    0.2137 H     296  UNL296      0.1146
   1183 H           7.6676    6.8048   -0.2334 H     296  UNL296      0.1146
   1184 H           7.4295    5.4367   -1.0823 H     296  UNL296      0.1146
   1185 N           6.9095    5.9242    1.5410 N.3   297  UNL297     -0.3437
   1186 H           7.0372    5.5410    2.4765 H     297  UNL297      0.1146
   1187 H           6.8144    6.9317    1.6607 H     297  UNL297      0.1146
   1188 H           7.7941    5.7813    1.0558 H     297  UNL297      0.1146
   1189 N           7.0639    6.1005    3.5234 N.3   298  UNL298     -0.3437
   1190 H           7.3232    5.1352    3.7215 H     298  UNL298      0.1146
   1191 H           6.2895    6.3174    4.1492 H     298  UNL298      0.1146
   1192 H           7.8471    6.6718    3.8374 H     298  UNL298      0.1146
   1193 N           6.9046    5.8949    6.0294 N.3   299  UNL299     -0.3437
   1194 H           7.5330    5.3520    5.4388 H     299  UNL299      0.1146
   1195 H           7.4876    6.3046    6.7578 H     299  UNL299      0.1146
   1196 H           6.5829    6.6735    5.4561 H     299  UNL299      0.1146
   1197 N           6.9381    4.1981    8.1325 N.3   300  UNL300     -0.3437
   1198 H           6.4964    3.3263    7.8440 H     300  UNL300      0.1146
   1199 H           7.6637    3.9382    8.7991 H     300  UNL300      0.1146
   1200 H           7.4256    4.5515    7.3104 H     300  UNL300      0.1146
   1201 N           6.9420    4.0196   10.3443 N.3   301  UNL301     -0.3437
   1202 H           6.5003    4.1614    9.4370 H     301  UNL301      0.1146
   1203 H           7.6676    3.3195   10.1971 H     301  UNL301      0.1146
   1204 H           7.4295    4.8885   10.5582 H     301  UNL301      0.1146
   1205 N           6.6119    3.1200   12.0668 N.3   302  UNL302     -0.3437
   1206 H           6.1702    2.2482   11.7783 H     302  UNL302      0.1146
   1207 H           7.3375    2.8601   12.7334 H     302  UNL302      0.1146
   1208 H           7.0994    3.4733   11.2447 H     302  UNL302      0.1146
   1209 N           6.9401    4.2293   14.4783 N.3   303  UNL303     -0.3437
   1210 H           6.4984    3.3576   14.1898 H     303  UNL303      0.1146
   1211 H           7.6657    3.9694   15.1449 H     303  UNL303      0.1146
   1212 H           7.4276    4.5827   13.6562 H     303  UNL303      0.1146
   1213 N           6.9362    5.8946   16.6390 N.3   304  UNL304     -0.3437
   1214 H           6.4945    6.4186   15.8848 H     304  UNL304      0.1146
   1215 H           7.6618    5.3291   16.2006 H     304  UNL304      0.1146
   1216 H           7.4237    6.5827   17.2110 H     304  UNL304      0.1146
   1217 N           6.9381    4.1449   18.4208 N.3   305  UNL305     -0.3437
   1218 H           6.4964    3.7175   19.2335 H     305  UNL305      0.1146
   1219 H           7.6637    4.7599   18.7864 H     305  UNL305      0.1146
   1220 H           7.4256    3.3918   17.9375 H     305  UNL305      0.1146
   1221 N           6.9342    4.2919   20.8124 N.3   306  UNL306     -0.3437
   1222 H           6.4925    3.4201   20.5239 H     306  UNL306      0.1146
   1223 H           7.6598    4.0319   21.4790 H     306  UNL306      0.1146
   1224 H           7.4217    4.6452   19.9903 H     306  UNL306      0.1146
   1225 N           6.8370    8.2826   -0.4419 N.3   307  UNL307     -0.3437
   1226 H           7.1598    8.5732    0.4799 H     307  UNL307      0.1146
   1227 H           7.2017    8.9722   -1.0976 H     307  UNL307      0.1146
   1228 H           7.3253    7.4125   -0.6491 H     307  UNL307      0.1146
   1229 N           6.8977    8.1479    1.7867 N.3   308  UNL308     -0.3437
   1230 H           7.0255    9.0080    2.3180 H     308  UNL308      0.1146
   1231 H           6.8026    8.4310    0.8125 H     308  UNL308      0.1146
   1232 H           7.7823    7.6458    1.8482 H     308  UNL308      0.1146
   1233 N           7.1895    8.1440    4.0458 N.3   309  UNL309     -0.3437
   1234 H           7.7345    9.0041    4.0068 H     309  UNL309      0.1146
   1235 H           6.2128    8.4271    3.9801 H     309  UNL309      0.1146
   1236 H           7.3950    7.6419    3.1832 H     309  UNL309      0.1146
   1237 N           6.8813    8.4637    5.8713 N.3   310  UNL310     -0.3437
   1238 H           7.0749    7.7924    5.1295 H     310  UNL310      0.1146
   1239 H           6.8653    7.9278    6.7379 H     310  UNL310      0.1146
   1240 H           7.7024    9.0644    5.9278 H     310  UNL310      0.1146
   1241 N           6.9342    6.2943    7.8031 N.3   311  UNL311     -0.3437
   1242 H           6.4925    6.5849    8.6742 H     311  UNL311      0.1146
   1243 H           7.6598    6.9839    7.6124 H     311  UNL311      0.1146
   1244 H           7.4217    5.4242    8.0120 H     311  UNL311      0.1146
   1245 N           6.9166    6.2932   10.3454 N.3   312  UNL312     -0.3437
   1246 H           6.9750    7.1662    9.8231 H     312  UNL312      0.1146
   1247 H           6.7917    5.5581    9.6509 H     312  UNL312      0.1146
   1248 H           7.8406    6.1447   10.7485 H     312  UNL312      0.1146
   1249 N           6.5182    5.0977   12.5269 N.3   313  UNL313     -0.3437
   1250 H           6.0765    5.6217   11.7728 H     313  UNL313      0.1146
   1251 H           7.2438    4.5322   12.0886 H     313  UNL313      0.1146
   1252 H           7.0057    5.7858   13.0990 H     313  UNL313      0.1146
   1253 N           6.8905    6.4180   14.3950 N.3   314  UNL314     -0.3437
   1254 H           7.3066    6.1994   15.2991 H     314  UNL314      0.1146
   1255 H           7.6144    6.8966   13.8610 H     314  UNL314      0.1146
   1256 H           6.7435    5.5234   13.9297 H     314  UNL314      0.1146
   1257 N           6.9440    8.1446   16.6331 N.3   315  UNL315     -0.3437
   1258 H           6.5023    8.6685   15.8790 H     315  UNL315      0.1146
   1259 H           7.6696    7.5791   16.1948 H     315  UNL315      0.1146
   1260 H           7.4315    8.8326   17.2052 H     315  UNL315      0.1146
   1261 N           6.9394    6.3256   18.8763 N.3   316  UNL316     -0.3437
   1262 H           7.9016    6.6162   18.7088 H     316  UNL316      0.1146
   1263 H           6.3523    7.0152   18.4091 H     316  UNL316      0.1146
   1264 H           6.8150    5.4555   18.3607 H     316  UNL316      0.1146
   1265 N           6.9420    6.4788   20.5295 N.3   317  UNL317     -0.3437
   1266 H           6.5003    6.0514   21.3423 H     317  UNL317      0.1146
   1267 H           7.6676    7.0939   20.8951 H     317  UNL317      0.1146
   1268 H           7.4295    5.7257   20.0463 H     317  UNL317      0.1146
   1269 N           6.8516   10.5970   -0.5030 N.3   318  UNL318     -0.3437
   1270 H           7.3734   11.4703   -0.4452 H     318  UNL318      0.1146
   1271 H           7.3532   10.0137   -1.1713 H     318  UNL318      0.1146
   1272 H           6.9613   10.1437    0.4030 H     318  UNL318      0.1146
   1273 N           6.9420   10.5365    1.4651 N.3   319  UNL319     -0.3437
   1274 H           6.5003   10.8271    2.3362 H     319  UNL319      0.1146
   1275 H           7.6676   11.2261    1.2744 H     319  UNL319      0.1146
   1276 H           7.4295    9.6664    1.6740 H     319  UNL319      0.1146
   1277 N           7.3618   10.3899    3.8833 N.3   320  UNL320     -0.3437
   1278 H           6.5298   10.2434    4.4530 H     320  UNL320      0.1146
   1279 H           7.0756   10.2219    2.9198 H     320  UNL320      0.1146
   1280 H           7.5722   11.3851    3.9442 H     320  UNL320      0.1146
   1281 N           7.1917   10.7644    5.7030 N.3   321  UNL321     -0.3437
   1282 H           7.8703   10.0044    5.7159 H     321  UNL321      0.1146
   1283 H           6.2793   10.3244    5.5911 H     321  UNL321      0.1146
   1284 H           7.1981   11.1627    6.6409 H     321  UNL321      0.1146
   1285 N           6.9420   10.5345    7.8070 N.3   322  UNL322     -0.3437
   1286 H           6.5003   10.8251    8.6781 H     322  UNL322      0.1146
   1287 H           7.6676   11.2241    7.6163 H     322  UNL322      0.1146
   1288 H           7.4295    9.6644    8.0159 H     322  UNL322      0.1146
   1289 N           7.2296   10.6809    9.8925 N.3   323  UNL323     -0.3437
   1290 H           7.4723    9.6953    9.9817 H     323  UNL323      0.1146
   1291 H           6.2143   10.7279    9.9647 H     323  UNL323      0.1146
   1292 H           7.5920   11.1362   10.7290 H     323  UNL323      0.1146
   1293 N           6.9381    8.5814   12.0362 N.3   324  UNL324     -0.3437
   1294 H           6.4964    8.8720   12.9073 H     324  UNL324      0.1146
   1295 H           7.6637    9.2710   11.8455 H     324  UNL324      0.1146
   1296 H           7.4256    7.7113   12.2451 H     324  UNL324      0.1146
   1297 N           6.8623   10.4285   14.6232 N.3   325  UNL325     -0.3437
   1298 H           7.6906    9.8349   14.6212 H     325  UNL325      0.1146
   1299 H           7.1884   11.3664   14.3944 H     325  UNL325      0.1146
   1300 H           6.2982   10.1261   13.8303 H     325  UNL325      0.1146
   1301 N           7.4005   10.5325   16.5850 N.3   326  UNL326     -0.3437
   1302 H           7.3929   10.8231   15.6083 H     326  UNL326      0.1146
   1303 H           6.8434   11.2221   17.0876 H     326  UNL326      0.1146
   1304 H           6.8715    9.6624   16.6233 H     326  UNL326      0.1146
   1305 N           6.7655    9.6114   18.7491 N.3   327  UNL327     -0.3437
   1306 H           7.1816    8.6837   18.6815 H     327  UNL327      0.1146
   1307 H           7.4894   10.2166   19.1338 H     327  UNL327      0.1146
   1308 H           6.6185    9.9238   17.7904 H     327  UNL327      0.1146
   1309 N           6.8730    8.6839   20.7739 N.3   328  UNL328     -0.3437
   1310 H           7.3238    8.2298   21.5670 H     328  UNL328      0.1146
   1311 H           7.5444    9.3643   20.4210 H     328  UNL328      0.1146
   1312 H           6.7905    7.9701   20.0513 H     328  UNL328      0.1146
   1313 N           6.9459   12.9534   -0.4688 N.3   329  UNL329     -0.3437
   1314 H           6.5042   12.5260    0.3440 H     329  UNL329      0.1146
   1315 H           7.6715   13.5684   -0.1032 H     329  UNL329      0.1146
   1316 H           7.4334   12.2002   -0.9520 H     329  UNL329      0.1146
   1317 N           6.9420   12.6259    1.8739 N.3   330  UNL330     -0.3437
   1318 H           6.5003   13.2931    1.2429 H     330  UNL330      0.1146
   1319 H           7.6676   12.1621    1.3292 H     330  UNL330      0.1146
   1320 H           7.4295   13.1825    2.5746 H     330  UNL330      0.1146
   1321 N           6.9459   13.0066    3.9788 N.3   331  UNL331     -0.3437
   1322 H           6.5042   12.1348    3.6903 H     331  UNL331      0.1146
   1323 H           7.6715   12.7467    4.6454 H     331  UNL331      0.1146
   1324 H           7.4334   13.3599    3.1567 H     331  UNL331      0.1146
   1325 N           5.3385   12.9250    7.8031 N.3   332  UNL332     -0.3437
   1326 H           5.8643   12.8696    8.6742 H     332  UNL332      0.1146
   1327 H           5.0105   11.9792    7.6124 H     332  UNL332      0.1146
   1328 H           4.5059   13.4741    8.0120 H     332  UNL332      0.1146
   1329 N           7.1467   12.6239    9.9173 N.3   333  UNL333     -0.3437
   1330 H           6.5252   13.4070    9.7201 H     333  UNL333      0.1146
   1331 H           8.0528   13.0336   10.1398 H     333  UNL333      0.1146
   1332 H           6.8070   12.2069   10.7828 H     333  UNL333      0.1146
   1333 N           6.7555   10.8732   12.0966 N.3   334  UNL334     -0.3437
   1334 H           6.5948   10.3402   12.9501 H     334  UNL334      0.1146
   1335 H           7.1816   11.7512   12.3898 H     334  UNL334      0.1146
   1336 H           7.4764   10.3692   11.5822 H     334  UNL334      0.1146
   1337 N           7.2393   13.0406   14.5627 N.3   335  UNL335     -0.3437
   1338 H           6.6915   12.2170   14.8074 H     335  UNL335      0.1146
   1339 H           8.1986   12.7162   14.4488 H     335  UNL335      0.1146
   1340 H           6.9257   13.3210   13.6346 H     335  UNL335      0.1146
   1341 N           6.9420   12.7942   16.2576 N.3   336  UNL336     -0.3437
   1342 H           6.5003   13.0848   17.1287 H     336  UNL336      0.1146
   1343 H           7.6676   13.4838   16.0669 H     336  UNL336      0.1146
   1344 H           7.4295   11.9241   16.4665 H     336  UNL336      0.1146
   1345 N           7.1831   12.5927   18.7766 N.3   337  UNL337     -0.3437
   1346 H           6.2386   12.9704   18.8373 H     337  UNL337      0.1146
   1347 H           7.3228   12.3412   17.7990 H     337  UNL337      0.1146
   1348 H           7.8106   13.3749   18.9576 H     337  UNL337      0.1146
   1349 N           6.8563   10.8542   21.5841 N.3   338  UNL338     -0.3437
   1350 H           6.9940   10.2607   22.4008 H     338  UNL338      0.1146
   1351 H           7.1354   11.7922   21.8682 H     338  UNL338      0.1146
   1352 H           7.5460   10.5519   20.8976 H     338  UNL338      0.1146
   1353 N           7.4005   15.0481   -0.3143 N.3   339  UNL339     -0.3437
   1354 H           7.3929   15.3387   -1.2910 H     339  UNL339      0.1146
   1355 H           6.8434   15.7377    0.1882 H     339  UNL339      0.1146
   1356 H           6.8715   14.1780   -0.2761 H     339  UNL339      0.1146
   1357 N           7.3149   15.0096    1.4651 N.3   340  UNL340     -0.3437
   1358 H           7.5739   14.5486    2.3362 H     340  UNL340      0.1146
   1359 H           6.3537   14.7301    1.2744 H     340  UNL340      0.1146
   1360 H           7.2813   16.0064    1.6740 H     340  UNL340      0.1146
   1361 N           6.9393   15.0305    4.0837 N.3   341  UNL341     -0.3437
   1362 H           7.9016   15.3211    3.9163 H     341  UNL341      0.1146
   1363 H           6.3523   15.7201    3.6165 H     341  UNL341      0.1146
   1364 H           6.8150   14.1604    3.5682 H     341  UNL341      0.1146
   1365 N           7.1217   16.3474    5.7317 N.3   342  UNL342     -0.3437
   1366 H           6.3156   16.2975    6.3531 H     342  UNL342      0.1146
   1367 H           7.9404   16.3922    6.3367 H     342  UNL342      0.1146
   1368 H           7.1695   15.4450    5.2608 H     342  UNL342      0.1146
   1369 N           7.1178   16.3474    7.8385 N.3   343  UNL343     -0.3437
   1370 H           6.3117   16.2975    8.4599 H     343  UNL343      0.1146
   1371 H           7.9365   16.3922    8.4435 H     343  UNL343      0.1146
   1372 H           7.1656   15.4450    7.3676 H     343  UNL343      0.1146
   1373 N           6.9362   15.0461    9.9138 N.3   344  UNL344     -0.3437
   1374 H           6.4945   15.3367   10.7849 H     344  UNL344      0.1146
   1375 H           7.6618   15.7357    9.7231 H     344  UNL344      0.1146
   1376 H           7.4237   14.1760   10.1227 H     344  UNL344      0.1146
   1377 N           7.2872   15.0618   12.3675 N.3   345  UNL345     -0.3437
   1378 H           7.2796   15.3524   11.3908 H     345  UNL345      0.1146
   1379 H           6.7301   15.7514   12.8701 H     345  UNL345      0.1146
   1380 H           6.7582   14.1917   12.4057 H     345  UNL345      0.1146
   1381 N           7.1217   16.3005   14.1823 N.3   346  UNL346     -0.3437
   1382 H           6.3156   16.2507   14.8038 H     346  UNL346      0.1146
   1383 H           7.9404   16.3454   14.7873 H     346  UNL346      0.1146
   1384 H           7.1695   15.3981   13.7114 H     346  UNL346      0.1146
   1385 N           7.1158   16.3474   16.2891 N.3   347  UNL347     -0.3437
   1386 H           6.3098   16.2975   16.9106 H     347  UNL347      0.1146
   1387 H           7.9346   16.3922   16.8941 H     347  UNL347      0.1146
   1388 H           7.1637   15.4450   15.8182 H     347  UNL347      0.1146
   1389 N           7.1178   16.3474   18.4018 N.3   348  UNL348     -0.3437
   1390 H           6.3117   16.2975   19.0232 H     348  UNL348      0.1146
   1391 H           7.9365   16.3922   19.0068 H     348  UNL348      0.1146
   1392 H           7.1656   15.4450   17.9309 H     348  UNL348      0.1146
   1393 N           6.9401   15.0461   20.4810 N.3   349  UNL349     -0.3437
   1394 H           6.4984   15.3367   21.3521 H     349  UNL349      0.1146
   1395 H           7.6657   15.7357   20.2903 H     349  UNL349      0.1146
   1396 H           7.4276   14.1760   20.6899 H     349  UNL349      0.1146
   1397 N           9.3627   -0.9396   -0.2518 N.3   350  UNL350     -0.3437
   1398 H           8.8306   -0.9377   -1.1208 H     350  UNL350      0.1146
   1399 H           9.7883   -0.0165   -0.1809 H     350  UNL350      0.1146
   1400 H           8.6750   -0.9901    0.4985 H     350  UNL350      0.1146
   1401 N           8.9674   -0.8787    4.0854 N.3   351  UNL351     -0.3437
   1402 H           8.5257   -0.3547    3.3313 H     351  UNL351      0.1146
   1403 H           9.6930   -1.4442    3.6471 H     351  UNL351      0.1146
   1404 H           9.4549   -0.1906    4.6575 H     351  UNL351      0.1146
   1405 N           8.8663   -0.7466   16.3324 N.3   352  UNL352     -0.3437
   1406 H           9.1891   -0.4560   17.2542 H     352  UNL352      0.1146
   1407 H           9.2310   -0.0570   15.6768 H     352  UNL352      0.1146
   1408 H           9.3545   -1.6167   16.1252 H     352  UNL352      0.1146
   1409 N           9.3885   -0.7334   21.9064 N.3   353  UNL353     -0.3437
   1410 H           9.5222   -1.3270   21.0890 H     353  UNL353      0.1146
   1411 H           9.2162    0.2045   21.5473 H     353  UNL353      0.1146
   1412 H           8.5140   -1.0358   22.3331 H     353  UNL353      0.1146
   1413 N           8.9693    1.3846   -0.5254 N.3   354  UNL354     -0.3437
   1414 H           8.5276    2.1164    0.0293 H     354  UNL354      0.1146
   1415 H           9.6949    1.8460   -1.0723 H     354  UNL354      0.1146
   1416 H           9.4568    0.7845    0.1384 H     354  UNL354      0.1146
   1417 N           8.9635    1.7275    1.8662 N.3   355  UNL355     -0.3437
   1418 H           8.5218    0.8557    1.5777 H     355  UNL355      0.1146
   1419 H           9.6891    1.4676    2.5328 H     355  UNL355      0.1146
   1420 H           9.4510    2.0808    1.0441 H     355  UNL355      0.1146
   1421 N           8.9596    1.4670    4.1717 N.3   356  UNL356     -0.3437
   1422 H           8.5179    1.6088    3.2644 H     356  UNL356      0.1146
   1423 H           9.6852    0.7668    4.0245 H     356  UNL356      0.1146
   1424 H           9.4471    2.3359    4.3856 H     356  UNL356      0.1146
   1425 N           8.9458   -0.4430    8.2289 N.3   357  UNL357     -0.3437
   1426 H           9.0042    0.4300    7.7065 H     357  UNL357      0.1146
   1427 H           8.8210   -1.1781    7.5343 H     357  UNL357      0.1146
   1428 H           9.8699   -0.5915    8.6319 H     357  UNL357      0.1146
   1429 N           8.9635   -0.3668    9.9682 N.3   358  UNL358     -0.3437
   1430 H           8.5218   -0.7942   10.7810 H     358  UNL358      0.1146
   1431 H           9.6891    0.2483   10.3338 H     358  UNL358      0.1146
   1432 H           9.4510   -1.1199    9.4849 H     358  UNL358      0.1146
   1433 N           8.9596   -0.3135   12.3578 N.3   359  UNL359     -0.3437
   1434 H           8.5179   -1.1853   12.0693 H     359  UNL359      0.1146
   1435 H           9.6852   -0.5735   13.0244 H     359  UNL359      0.1146
   1436 H           9.4471    0.0398   11.5357 H     359  UNL359      0.1146
   1437 N           8.9713   -0.5233   14.5696 N.3   360  UNL360     -0.3437
   1438 H           8.5296   -0.3815   13.6623 H     360  UNL360      0.1146
   1439 H           9.6969   -1.2234   14.4224 H     360  UNL360      0.1146
   1440 H           9.4588    0.3456   14.7835 H     360  UNL360      0.1146
   1441 N           8.9635    1.6594   16.6609 N.3   361  UNL361     -0.3437
   1442 H           8.5218    1.0013   16.0205 H     361  UNL361      0.1146
   1443 H           9.6891    1.1344   17.1469 H     361  UNL361      0.1146
   1444 H           9.4510    2.3365   16.0758 H     361  UNL361      0.1146
   1445 N           8.9654    1.7275   18.7017 N.3   362  UNL362     -0.3437
   1446 H           8.5237    0.8557   18.4132 H     362  UNL362      0.1146
   1447 H           9.6910    1.4676   19.3683 H     362  UNL362      0.1146
   1448 H           9.4529    2.0808   17.8796 H     362  UNL362      0.1146
   1449 N           8.8797    1.5224   21.5528 N.3   363  UNL363     -0.3437
   1450 H           9.0174    0.9288   22.3696 H     363  UNL363      0.1146
   1451 H           9.1588    2.4603   21.8370 H     363  UNL363      0.1146
   1452 H           9.5694    1.2200   20.8664 H     363  UNL363      0.1146
   1453 N           8.9693    3.9892   -0.3123 N.3   364  UNL364     -0.3437
   1454 H           8.5276    3.1174   -0.6008 H     364  UNL364      0.1146
   1455 H           9.6949    3.7292    0.3543 H     364  UNL364      0.1146
   1456 H           9.4568    4.3425   -1.1344 H     364  UNL364      0.1146
   1457 N           8.9674    3.7729    1.4729 N.3   365  UNL365     -0.3437
   1458 H           8.5257    4.0635    2.3440 H     365  UNL365      0.1146
   1459 H           9.6930    4.4625    1.2822 H     365  UNL365      0.1146
   1460 H           9.4549    2.9028    1.6818 H     365  UNL365      0.1146
   1461 N           8.9723    3.5779    3.7246 N.3   366  UNL366     -0.3437
   1462 H           9.1949    3.5798    4.7190 H     366  UNL366      0.1146
   1463 H           8.5924    4.5010    3.5200 H     366  UNL366      0.1146
   1464 H           9.8656    3.5274    3.2369 H     366  UNL366      0.1146
   1465 N           8.9635    3.6368    6.0718 N.3   367  UNL367     -0.3437
   1466 H           8.5218    4.1608    5.3176 H     367  UNL367      0.1146
   1467 H           9.6891    3.0714    5.6334 H     367  UNL367      0.1146
   1468 H           9.4510    4.3249    6.6438 H     367  UNL367      0.1146
   1469 N           9.1890    3.8640    7.7468 N.3   368  UNL368     -0.3437
   1470 H           8.2792    3.4501    7.9449 H     368  UNL368      0.1146
   1471 H           9.2761    4.6635    8.3726 H     368  UNL368      0.1146
   1472 H           9.8809    3.1850    8.0608 H     368  UNL368      0.1146
   1473 N           8.9674    1.9423   10.2452 N.3   369  UNL369     -0.3437
   1474 H           8.5257    1.0705    9.9567 H     369  UNL369      0.1146
   1475 H           9.6930    1.6824   10.9118 H     369  UNL369      0.1146
   1476 H           9.4549    2.2956    9.4231 H     369  UNL369      0.1146
   1477 N           8.8346    3.0360   12.3617 N.3   370  UNL370     -0.3437
   1478 H           8.3929    2.1642   12.0732 H     370  UNL370      0.1146
   1479 H           9.5602    2.7761   13.0283 H     370  UNL370      0.1146
   1480 H           9.3221    3.3894   11.5396 H     370  UNL370      0.1146
   1481 N           8.9713    1.9516   14.1935 N.3   371  UNL371     -0.3437
   1482 H           8.5296    1.5242   15.0063 H     371  UNL371      0.1146
   1483 H           9.6969    2.5666   14.5591 H     371  UNL371      0.1146
   1484 H           9.4588    1.1985   13.7103 H     371  UNL371      0.1146
   1485 N           9.3255    3.7739   16.2369 N.3   372  UNL372     -0.3437
   1486 H           8.4368    3.2915   16.1107 H     372  UNL372      0.1146
   1487 H           9.0911    4.7314   16.4952 H     372  UNL372      0.1146
   1488 H           9.7563    3.3580   17.0614 H     372  UNL372      0.1146
   1489 N           8.9596    3.7729   18.3703 N.3   373  UNL373     -0.3437
   1490 H           8.5179    4.0635   19.2414 H     373  UNL373      0.1146
   1491 H           9.6852    4.4625   18.1796 H     373  UNL373      0.1146
   1492 H           9.4471    2.9028   18.5792 H     373  UNL373      0.1146
   1493 N           9.3826    3.7821   21.4932 N.3   374  UNL374     -0.3437
   1494 H           8.5981    3.1885   21.2274 H     374  UNL374      0.1146
   1495 H           9.0001    4.7201   21.6043 H     374  UNL374      0.1146
   1496 H           9.6602    3.4797   22.4258 H     374  UNL374      0.1146
   1497 N           8.9654    6.2450   -0.3123 N.3   375  UNL375     -0.3437
   1498 H           8.5237    5.3732   -0.6008 H     375  UNL375      0.1146
   1499 H           9.6910    5.9851    0.3543 H     375  UNL375      0.1146
   1500 H           9.4529    6.5983   -1.1344 H     375  UNL375      0.1146
   1501 N           9.0897    6.0287    1.9828 N.3   376  UNL376     -0.3437
   1502 H          10.0519    6.3193    1.8153 H     376  UNL376      0.1146
   1503 H           8.5027    6.7183    1.5156 H     376  UNL376      0.1146
   1504 H           8.9653    5.1586    1.4672 H     376  UNL376      0.1146
   1505 N           8.9713    6.0209    3.5817 N.3   377  UNL377     -0.3437
   1506 H           8.5296    6.3115    4.4528 H     377  UNL377      0.1146
   1507 H           9.6969    6.7105    3.3910 H     377  UNL377      0.1146
   1508 H           9.4588    5.1508    3.7906 H     377  UNL377      0.1146
   1509 N           8.9635    6.1750    6.0976 N.3   378  UNL378     -0.3437
   1510 H           8.5218    5.5168    5.4572 H     378  UNL378      0.1146
   1511 H           9.6891    5.6499    6.5836 H     378  UNL378      0.1146
   1512 H           9.4510    6.8520    5.5125 H     378  UNL378      0.1146
   1513 N           8.9654    6.2450    8.1325 N.3   379  UNL379     -0.3437
   1514 H           8.5237    5.3732    7.8440 H     379  UNL379      0.1146
   1515 H           9.6910    5.9851    8.7991 H     379  UNL379      0.1146
   1516 H           9.4529    6.5983    7.3104 H     379  UNL379      0.1146
   1517 N           8.9674    3.9571   10.3521 N.3   380  UNL380     -0.3437
   1518 H           8.5257    4.0989    9.4448 H     380  UNL380      0.1146
   1519 H           9.6930    3.2570   10.2049 H     380  UNL380      0.1146
   1520 H           9.4549    4.8260   10.5660 H     380  UNL380      0.1146
   1521 N           7.0123    6.1537   11.8995 N.3   381  UNL381     -0.3437
   1522 H           6.5706    6.4443   12.7706 H     381  UNL381      0.1146
   1523 H           7.7379    6.8433   11.7088 H     381  UNL381      0.1146
   1524 H           7.4998    5.2836   12.1084 H     381  UNL381      0.1146
   1525 N           8.9139    4.1467   14.2069 N.3   382  UNL382     -0.3437
   1526 H           9.3300    5.0028   14.5706 H     382  UNL382      0.1146
   1527 H           9.6378    3.6983   13.6472 H     382  UNL382      0.1146
   1528 H           8.7670    3.5412   15.0132 H     382  UNL382      0.1146
   1529 N           9.3046    6.3039   16.4828 N.3   383  UNL383     -0.3437
   1530 H           9.6366    5.6266   17.1679 H     383  UNL383      0.1146
   1531 H           9.3760    5.8443   15.5761 H     383  UNL383      0.1146
   1532 H           8.3081    6.4189   16.6617 H     383  UNL383      0.1146
   1533 N           9.0955    6.3039   18.4609 N.3   384  UNL384     -0.3437
   1534 H           9.5415    5.6266   17.8439 H     384  UNL384      0.1146
   1535 H           8.2632    5.8443   18.8276 H     384  UNL384      0.1146
   1536 H           9.7252    6.4189   19.2537 H     384  UNL384      0.1146
   1537 N           9.0068    6.0340   21.9749 N.3   385  UNL385     -0.3437
   1538 H           9.8351    5.4405   21.9728 H     385  UNL385      0.1146
   1539 H           9.3329    6.9720   21.7461 H     385  UNL385      0.1146
   1540 H           8.4427    5.7317   21.1820 H     385  UNL385      0.1146
   1541 N           8.9674    8.1248    1.5534 N.3   386  UNL386     -0.3437
   1542 H           8.5257    8.9545    1.9467 H     386  UNL386      0.1146
   1543 H           9.6930    8.4646    0.9237 H     386  UNL386      0.1146
   1544 H           9.4549    7.6731    2.3259 H     386  UNL386      0.1146
   1545 N           9.4258    8.2806    3.9051 N.3   387  UNL387     -0.3437
   1546 H           9.4182    8.5712    2.9285 H     387  UNL387      0.1146
   1547 H           8.8688    8.9702    4.4077 H     387  UNL387      0.1146
   1548 H           8.8968    7.4105    3.9434 H     387  UNL387      0.1146
   1549 N           8.9713    8.4949    6.0237 N.3   388  UNL388     -0.3437
   1550 H           8.5296    7.6231    5.7352 H     388  UNL388      0.1146
   1551 H           9.6969    8.2350    6.6903 H     388  UNL388      0.1146
   1552 H           9.4588    8.8483    5.2016 H     388  UNL388      0.1146
   1553 N           8.9596    8.5067    8.1442 N.3   389  UNL389     -0.3437
   1554 H           8.5179    7.6349    7.8557 H     389  UNL389      0.1146
   1555 H           9.6852    8.2467    8.8108 H     389  UNL389      0.1146
   1556 H           9.4471    8.8600    7.3221 H     389  UNL389      0.1146
   1557 N           8.9713    6.5562   10.0435 N.3   390  UNL390     -0.3437
   1558 H           8.5296    5.8166   10.5878 H     390  UNL390      0.1146
   1559 H           9.6969    6.9496   10.6411 H     390  UNL390      0.1146
   1560 H           9.4588    6.0899    9.2798 H     390  UNL390      0.1146
   1561 N           8.9635    8.2266   12.4687 N.3   391  UNL391     -0.3437
   1562 H           8.5218    8.3684   11.5614 H     391  UNL391      0.1146
   1563 H           9.6891    7.5265   12.3215 H     391  UNL391      0.1146
   1564 H           9.4510    9.0955   12.6826 H     391  UNL391      0.1146
   1565 N           9.2168    8.1420   14.6052 N.3   392  UNL392     -0.3437
   1566 H           9.7618    9.0021   14.5662 H     392  UNL392      0.1146
   1567 H           8.2401    8.4251   14.5394 H     392  UNL392      0.1146
   1568 H           9.4223    7.6399   13.7426 H     392  UNL392      0.1146
   1569 N           9.1662    8.5558   16.6280 N.3   393  UNL393     -0.3437
   1570 H           8.5447    7.8785   17.0677 H     393  UNL393      0.1146
   1571 H          10.0723    8.0963   16.5499 H     393  UNL393      0.1146
   1572 H           8.8265    8.6708   15.6742 H     393  UNL393      0.1146
   1573 N           8.9290    8.1800   18.4482 N.3   394  UNL394     -0.3437
   1574 H           9.0567    7.7968   19.3837 H     394  UNL394      0.1146
   1575 H           8.8339    9.1875   18.5679 H     394  UNL394      0.1146
   1576 H           9.8136    8.0371   17.9629 H     394  UNL394      0.1146
   1577 N           9.1416    8.2898   21.9436 N.3   395  UNL395     -0.3437
   1578 H           9.9699    7.6963   21.9416 H     395  UNL395      0.1146
   1579 H           9.4676    9.2278   21.7148 H     395  UNL395      0.1146
   1580 H           8.5774    7.9875   21.1508 H     395  UNL395      0.1146
   1581 N           8.9654   10.5306   -0.6456 N.3   396  UNL396     -0.3437
   1582 H           8.5237   10.8212    0.2255 H     396  UNL396      0.1146
   1583 H           9.6910   11.2202   -0.8363 H     396  UNL396      0.1146
   1584 H           9.4529    9.6605   -0.4367 H     396  UNL396      0.1146
   1585 N           8.9596   10.5404    1.4690 N.3   397  UNL397     -0.3437
   1586 H           8.5179   10.8310    2.3401 H     397  UNL397      0.1146
   1587 H           9.6852   11.2300    1.2783 H     397  UNL397      0.1146
   1588 H           9.4471    9.6703    1.6779 H     397  UNL397      0.1146
   1589 N           8.9713   10.3806    3.6699 N.3   398  UNL398     -0.3437
   1590 H           8.5296   11.2104    4.0633 H     398  UNL398      0.1146
   1591 H           9.6969   10.7204    3.0403 H     398  UNL398      0.1146
   1592 H           9.4588    9.9290    4.4424 H     398  UNL398      0.1146
   1593 N           8.9289   10.5404    5.7213 N.3   399  UNL399     -0.3437
   1594 H           8.6204   10.8310    6.6480 H     399  UNL399      0.1146
   1595 H           9.6185   11.2300    5.4257 H     399  UNL399      0.1146
   1596 H           9.4419    9.6703    5.8560 H     399  UNL399      0.1146
   1597 N           8.9713   10.5404    7.8089 N.3   400  UNL400     -0.3437
   1598 H           8.5296   10.8310    8.6800 H     400  UNL400      0.1146
   1599 H           9.6969   11.2300    7.6182 H     400  UNL400      0.1146
   1600 H           9.4588    9.6703    8.0178 H     400  UNL400      0.1146
   1601 N           8.9654    8.7042   10.3229 N.3   401  UNL401     -0.3437
   1602 H           8.5237    8.0461    9.6825 H     401  UNL401      0.1146
   1603 H           9.6910    8.1791   10.8090 H     401  UNL401      0.1146
   1604 H           9.4529    9.3812    9.7378 H     401  UNL401      0.1146
   1605 N           9.0897   10.5286   12.1809 N.3   402  UNL402     -0.3437
   1606 H          10.0519   10.8192   12.0134 H     402  UNL402      0.1146
   1607 H           8.5027   11.2182   11.7137 H     402  UNL402      0.1146
   1608 H           8.9653    9.6585   11.6653 H     402  UNL402      0.1146
   1609 N           8.9270   10.3959   14.4588 N.3   403  UNL403     -0.3437
   1610 H           9.0548   11.2560   14.9900 H     403  UNL403      0.1146
   1611 H           8.8319   10.6790   13.4845 H     403  UNL403      0.1146
   1612 H           9.8116    9.8938   14.5202 H     403  UNL403      0.1146
   1613 N           9.3821   10.3740   16.4531 N.3   404  UNL404     -0.3437
   1614 H           9.4749   11.1571   15.8078 H     404  UNL404      0.1146
   1615 H           9.3111   10.7836   17.3835 H     404  UNL404      0.1146
   1616 H           8.4727    9.9569   16.2598 H     404  UNL404      0.1146
   1617 N           8.9782   10.6045   18.3656 N.3   405  UNL405     -0.3437
   1618 H           9.9220   10.9583   18.2160 H     405  UNL405      0.1146
   1619 H           9.0807    9.6144   18.5839 H     405  UNL405      0.1146
   1620 H           8.6444   11.0474   19.2205 H     405  UNL405      0.1146
   1621 N           9.3008   10.5404   21.8279 N.3   406  UNL406     -0.3437
   1622 H           9.2932   10.8310   20.8512 H     406  UNL406      0.1146
   1623 H           8.7438   11.2300   22.3305 H     406  UNL406      0.1146
   1624 H           8.7718    9.6703   21.8662 H     406  UNL406      0.1146
   1625 N           8.9674   12.9612   -0.4688 N.3   407  UNL407     -0.3437
   1626 H           8.5257   12.5338    0.3440 H     407  UNL407      0.1146
   1627 H           9.6930   13.5762   -0.1032 H     407  UNL407      0.1146
   1628 H           9.4549   12.2081   -0.9520 H     407  UNL407      0.1146
   1629 N           8.9674   12.6298    1.9052 N.3   408  UNL408     -0.3437
   1630 H           8.5257   13.2970    1.2742 H     408  UNL408      0.1146
   1631 H           9.6930   12.1660    1.3604 H     408  UNL408      0.1146
   1632 H           9.4549   13.1864    2.6059 H     408  UNL408      0.1146
   1633 N           8.9654   13.0183    3.9788 N.3   409  UNL409     -0.3437
   1634 H           8.5237   12.1465    3.6903 H     409  UNL409      0.1146
   1635 H           9.6910   12.7584    4.6454 H     409  UNL409      0.1146
   1636 H           9.4529   13.3717    3.1567 H     409  UNL409      0.1146
   1637 N           6.9282   12.8205    6.2465 N.3   410  UNL410     -0.3437
   1638 H           6.9867   13.6935    5.7241 H     410  UNL410      0.1146
   1639 H           6.8034   12.0854    5.5519 H     410  UNL410      0.1146
   1640 H           7.8523   12.6720    6.6495 H     410  UNL410      0.1146
   1641 N           8.9674   11.0593   10.2452 N.3   411  UNL411     -0.3437
   1642 H           8.5257   10.1875    9.9567 H     411  UNL411      0.1146
   1643 H           9.6930   10.7994   10.9118 H     411  UNL411      0.1146
   1644 H           9.4549   11.4127    9.4231 H     411  UNL411      0.1146
   1645 N           9.4267   12.8713   12.3576 N.3   412  UNL412     -0.3437
   1646 H           9.1518   13.5584   11.6571 H     412  UNL412      0.1146
   1647 H           8.7027   12.8957   13.0743 H     412  UNL412      0.1146
   1648 H           9.3441   11.9615   11.9061 H     412  UNL412      0.1146
   1649 N           9.1662   13.0675   14.5153 N.3   413  UNL413     -0.3437
   1650 H           8.5447   12.3901   14.9551 H     413  UNL413      0.1146
   1651 H          10.0723   12.6079   14.4372 H     413  UNL413      0.1146
   1652 H           8.8265   13.1825   13.5615 H     413  UNL413      0.1146
   1653 N           8.9674   12.7845   16.2498 N.3   414  UNL414     -0.3437
   1654 H           8.5257   13.0751   17.1209 H     414  UNL414      0.1146
   1655 H           9.6930   13.4741   16.0591 H     414  UNL414      0.1146
   1656 H           9.4549   11.9144   16.4587 H     414  UNL414      0.1146
   1657 N           8.9674   12.6621   18.7516 N.3   415  UNL415     -0.3437
   1658 H           8.5257   13.1860   17.9975 H     415  UNL415      0.1146
   1659 H           9.6930   12.0966   18.3133 H     415  UNL415      0.1146
   1660 H           9.4549   13.3501   19.3237 H     415  UNL415      0.1146
   1661 N           8.9657   12.7641   21.5279 N.3   416  UNL416     -0.3437
   1662 H           8.4860   12.9865   22.3990 H     416  UNL416      0.1146
   1663 H           9.5818   13.5532   21.3372 H     416  UNL416      0.1146
   1664 H           9.5762   11.9754   21.7368 H     416  UNL416      0.1146
   1665 N           9.3661   15.8753   -0.3215 N.3   417  UNL417     -0.3437
   1666 H           8.7744   16.2404    0.4235 H     417  UNL417      0.1146
   1667 H           8.7368   15.4272   -0.9860 H     417  UNL417      0.1146
   1668 H           9.7479   16.6892   -0.8013 H     417  UNL417      0.1146
   1669 N           9.1431   16.3162    1.5024 N.3   418  UNL418     -0.3437
   1670 H           8.3371   16.2663    2.1239 H     418  UNL418      0.1146
   1671 H           9.9619   16.3610    2.1074 H     418  UNL418      0.1146
   1672 H           9.1910   15.4137    1.0316 H     418  UNL418      0.1146
   1673 N           9.1431   16.3474    3.6151 N.3   419  UNL419     -0.3437
   1674 H           8.3371   16.2975    4.2365 H     419  UNL419      0.1146
   1675 H           9.9619   16.3922    4.2201 H     419  UNL419      0.1146
   1676 H           9.1910   15.4450    3.1442 H     419  UNL419      0.1146
   1677 N           9.3403   15.0076    5.6924 N.3   420  UNL420     -0.3437
   1678 H           9.5992   14.5467    6.5635 H     420  UNL420      0.1146
   1679 H           8.3791   14.7282    5.5017 H     420  UNL420      0.1146
   1680 H           9.3067   16.0044    5.9013 H     420  UNL420      0.1146
   1681 N           8.9693   15.0461    7.8050 N.3   421  UNL421     -0.3437
   1682 H           8.5276   15.3367    8.6761 H     421  UNL421      0.1146
   1683 H           9.6949   15.7357    7.6143 H     421  UNL421      0.1146
   1684 H           9.4568   14.1760    8.0139 H     421  UNL421      0.1146
   1685 N           9.4317   16.0930   10.2431 N.3   422  UNL422     -0.3437
   1686 H           9.4241   16.3836    9.2665 H     422  UNL422      0.1146
   1687 H           8.8746   16.7826   10.7457 H     422  UNL422      0.1146
   1688 H           8.9027   15.2229   10.2814 H     422  UNL422      0.1146
   1689 N           9.1431   16.3474   12.0677 N.3   423  UNL423     -0.3437
   1690 H           8.3371   16.2975   12.6891 H     423  UNL423      0.1146
   1691 H           9.9619   16.3922   12.6727 H     423  UNL423      0.1146
   1692 H           9.1910   15.4450   11.5968 H     423  UNL423      0.1146
   1693 N           8.9713   15.0520   14.1372 N.3   424  UNL424     -0.3437
   1694 H           8.5296   15.3426   15.0083 H     424  UNL424      0.1146
   1695 H           9.6969   15.7416   13.9465 H     424  UNL424      0.1146
   1696 H           9.4588   14.1819   14.3461 H     424  UNL424      0.1146
   1697 N           9.3364   15.0115   16.2537 N.3   425  UNL425     -0.3437
   1698 H           9.5953   14.5506   17.1248 H     425  UNL425      0.1146
   1699 H           8.3751   14.7321   16.0630 H     425  UNL425      0.1146
   1700 H           9.3028   16.0083   16.4626 H     425  UNL425      0.1146
   1701 N           8.9654   15.0500   18.3683 N.3   426  UNL426     -0.3437
   1702 H           8.5237   15.3406   19.2394 H     426  UNL426      0.1146
   1703 H           9.6910   15.7396   18.1776 H     426  UNL426      0.1146
   1704 H           9.4529   14.1799   18.5772 H     426  UNL426      0.1146
   1705 N           9.1852   16.0618   21.4571 N.3   427  UNL427     -0.3437
   1706 H           8.2508   16.3524   21.7414 H     427  UNL427      0.1146
   1707 H           9.8251   16.7514   21.8487 H     427  UNL427      0.1146
   1708 H           9.3719   15.1917   21.9535 H     427  UNL427      0.1146
   1709 N          10.9612   -0.5331    1.6385 N.3   428  UNL428     -0.3437
   1710 H          11.5896   -0.2102    2.3728 H     428  UNL428      0.1146
   1711 H          11.5442   -0.6854    0.8168 H     428  UNL428      0.1146
   1712 H          10.6395   -1.4552    1.9294 H     428  UNL428      0.1146
   1713 N          11.0952   -0.5140    5.7164 N.3   429  UNL429     -0.3437
   1714 H          11.5829   -1.3064    5.3010 H     429  UNL429      0.1146
   1715 H          10.3069   -0.9066    6.2290 H     429  UNL429      0.1146
   1716 H          11.7262   -0.1334    6.4202 H     429  UNL429      0.1146
   1717 N          11.3160   -0.6420   16.7245 N.3   430  UNL430     -0.3437
   1718 H          11.8518   -1.3135   16.1764 H     430  UNL430      0.1146
   1719 H          11.1304    0.1437   16.1026 H     430  UNL430      0.1146
   1720 H          10.4129   -1.0800   16.9006 H     430  UNL430      0.1146
   1721 N          11.2382   -0.8793   18.8344 N.3   431  UNL431     -0.3437
   1722 H          11.7832   -0.0192   18.7954 H     431  UNL431      0.1146
   1723 H          10.2615   -0.5962   18.7687 H     431  UNL431      0.1146
   1724 H          11.4437   -1.3814   17.9719 H     431  UNL431      0.1146
   1725 N          11.4139   -0.7295   21.9064 N.3   432  UNL432     -0.3437
   1726 H          11.5475   -1.3231   21.0890 H     432  UNL432      0.1146
   1727 H          11.2416    0.2084   21.5473 H     432  UNL432      0.1146
   1728 H          10.5393   -1.0319   22.3331 H     432  UNL432      0.1146
   1729 N          11.3201    1.3662   -0.2308 N.3   433  UNL433     -0.3437
   1730 H          10.6547    0.8330   -0.7888 H     433  UNL433      0.1146
   1731 H          11.9504    1.8123   -0.8957 H     433  UNL433      0.1146
   1732 H          10.7858    2.1201    0.1988 H     433  UNL433      0.1146
   1733 N          10.7959    1.5734    1.7111 N.3   434  UNL434     -0.3437
   1734 H          11.3907    1.9320    0.9654 H     434  UNL434      0.1146
   1735 H          11.3234    0.8229    2.1548 H     434  UNL434      0.1146
   1736 H          10.7324    2.3189    2.4028 H     434  UNL434      0.1146
   1737 N          11.2011    1.1774    3.7152 N.3   435  UNL435     -0.3437
   1738 H          11.5331    2.0398    3.2858 H     435  UNL435      0.1146
   1739 H          11.2724    1.3193    4.7218 H     435  UNL435      0.1146
   1740 H          10.2045    1.1264    3.5088 H     435  UNL435      0.1146
   1741 N          11.2254    1.4578    5.6308 N.3   436  UNL436     -0.3437
   1742 H          11.9500    2.0697    6.0035 H     436  UNL436      0.1146
   1743 H          11.1912    0.6516    6.2531 H     436  UNL436      0.1146
   1744 H          10.3445    1.9525    5.7635 H     436  UNL436      0.1146
   1745 N          11.4234   -0.3298    9.9842 N.3   437  UNL437     -0.3437
   1746 H          11.3494   -1.3424   10.0701 H     437  UNL437      0.1146
   1747 H          10.5496   -0.0191    9.5618 H     437  UNL437      0.1146
   1748 H          11.4200    0.0338   10.9361 H     437  UNL437      0.1146
   1749 N           9.0377    1.5054   12.0362 N.3   438  UNL438     -0.3437
   1750 H           8.5960    1.7960   12.9073 H     438  UNL438      0.1146
   1751 H           9.7633    2.1950   11.8455 H     438  UNL438      0.1146
   1752 H           9.5252    0.6353   12.2451 H     438  UNL438      0.1146
   1753 N          10.9334   -0.3649   14.2069 N.3   439  UNL439     -0.3437
   1754 H          11.3495    0.4912   14.5706 H     439  UNL439      0.1146
   1755 H          11.6573   -0.8133   13.6472 H     439  UNL439      0.1146
   1756 H          10.7865   -0.9704   15.0132 H     439  UNL439      0.1146
   1757 N          10.9966    1.7275   16.5831 N.3   440  UNL440     -0.3437
   1758 H          10.5549    0.8557   16.2946 H     440  UNL440      0.1146
   1759 H          11.7222    1.4676   17.2497 H     440  UNL440      0.1146
   1760 H          11.4841    2.0808   15.7610 H     440  UNL440      0.1146
   1761 N          10.9849    1.7392   18.7075 N.3   441  UNL441     -0.3437
   1762 H          10.5432    0.8674   18.4190 H     441  UNL441      0.1146
   1763 H          11.7105    1.4793   19.3741 H     441  UNL441      0.1146
   1764 H          11.4724    2.0926   17.8854 H     441  UNL441      0.1146
   1765 N          11.2386    1.5302   21.4291 N.3   442  UNL442     -0.3437
   1766 H          10.4554    0.9366   21.6987 H     442  UNL442      0.1146
   1767 H          11.0040    2.4681   21.7510 H     442  UNL442      0.1146
   1768 H          12.0287    1.2278   21.9971 H     442  UNL442      0.1146
   1769 N          10.9524    3.6362   -0.3220 N.3   443  UNL443     -0.3437
   1770 H          11.0801    4.4963    0.2092 H     443  UNL443      0.1146
   1771 H          10.8573    3.9194   -1.2963 H     443  UNL443      0.1146
   1772 H          11.8370    3.1341   -0.2606 H     443  UNL443      0.1146
   1773 N          10.9849    3.9152    1.8684 N.3   444  UNL444     -0.3437
   1774 H          10.5432    3.2571    1.2280 H     444  UNL444      0.1146
   1775 H          11.7105    3.3902    2.3544 H     444  UNL444      0.1146
   1776 H          11.4724    4.5923    1.2833 H     444  UNL444      0.1146
   1777 N          10.9966    3.6443    3.6302 N.3   445  UNL445     -0.3437
   1778 H          10.5549    4.3761    4.1850 H     445  UNL445      0.1146
   1779 H          11.7222    4.1057    3.0834 H     445  UNL445      0.1146
   1780 H          11.4841    3.0443    4.2940 H     445  UNL445      0.1146
   1781 N          10.9966    3.9418    5.7429 N.3   446  UNL446     -0.3437
   1782 H          10.5549    3.5144    6.5556 H     446  UNL446      0.1146
   1783 H          11.7222    4.5568    6.1085 H     446  UNL446      0.1146
   1784 H          11.4841    3.1887    5.2596 H     446  UNL446      0.1146
   1785 N          10.9849    1.5860    8.1805 N.3   447  UNL447     -0.3437
   1786 H          10.5432    2.1100    7.4264 H     447  UNL447      0.1146
   1787 H          11.7105    1.0206    7.7422 H     447  UNL447      0.1146
   1788 H          11.4724    2.2741    8.7526 H     447  UNL447      0.1146
   1789 N          10.9089    3.7782   10.0305 N.3   448  UNL448     -0.3437
   1790 H          11.0466    3.1846   10.8473 H     448  UNL448      0.1146
   1791 H          11.1881    4.7162   10.3147 H     448  UNL448      0.1146
   1792 H          11.5987    3.4758    9.3441 H     448  UNL448      0.1146
   1793 N          10.9849    3.7150   12.4648 N.3   449  UNL449     -0.3437
   1794 H          10.5432    3.8568   11.5575 H     449  UNL449      0.1146
   1795 H          11.7105    3.0148   12.3176 H     449  UNL449      0.1146
   1796 H          11.4724    4.5839   12.6787 H     449  UNL449      0.1146
   1797 N          10.9888    3.6007   14.4802 N.3   450  UNL450     -0.3437
   1798 H          10.5471    4.2679   13.8492 H     450  UNL450      0.1146
   1799 H          11.7144    3.1368   13.9354 H     450  UNL450      0.1146
   1800 H          11.4763    4.1572   15.1809 H     450  UNL450      0.1146
   1801 N          10.9888    3.7612   16.2498 N.3   451  UNL451     -0.3437
   1802 H          10.5471    4.0518   17.1209 H     451  UNL451      0.1146
   1803 H          11.7144    4.4508   16.0591 H     451  UNL451      0.1146
   1804 H          11.4763    2.8911   16.4587 H     451  UNL451      0.1146
   1805 N          10.9888    3.6112   18.4586 N.3   452  UNL452     -0.3437
   1806 H          10.5471    4.4409   18.8519 H     452  UNL452      0.1146
   1807 H          11.7144    3.9510   17.8289 H     452  UNL452      0.1146
   1808 H          11.4763    3.1595   19.2311 H     452  UNL452      0.1146
   1809 N          11.4118    3.7782   21.4619 N.3   453  UNL453     -0.3437
   1810 H          10.6273    3.1846   21.1962 H     453  UNL453      0.1146
   1811 H          11.0293    4.7162   21.5731 H     453  UNL453      0.1146
   1812 H          11.6895    3.4758   22.3946 H     453  UNL453      0.1146
   1813 N          10.9888    5.8323   -0.4635 N.3   454  UNL454     -0.3437
   1814 H          10.5471    6.7506   -0.4722 H     454  UNL454      0.1146
   1815 H          11.7144    5.8629   -1.1783 H     454  UNL454      0.1146
   1816 H          11.4763    5.7636    0.4287 H     454  UNL454      0.1146
   1817 N          10.9966    5.9708    1.9015 N.3   455  UNL455     -0.3437
   1818 H          10.5549    6.1126    0.9942 H     455  UNL455      0.1146
   1819 H          11.7222    5.2706    1.7543 H     455  UNL455      0.1146
   1820 H          11.4841    6.8397    2.1154 H     455  UNL455      0.1146
   1821 N          10.9888    6.1937    3.6302 N.3   456  UNL456     -0.3437
   1822 H          10.5471    5.7663    4.4430 H     456  UNL456      0.1146
   1823 H          11.7144    6.8087    3.9958 H     456  UNL456      0.1146
   1824 H          11.4763    5.4406    3.1470 H     456  UNL456      0.1146
   1825 N          10.9869    6.2489    6.0296 N.3   457  UNL457     -0.3437
   1826 H          10.5452    5.3771    5.7411 H     457  UNL457      0.1146
   1827 H          11.7125    5.9890    6.6962 H     457  UNL457      0.1146
   1828 H          11.4744    6.6022    5.2075 H     457  UNL457      0.1146
   1829 N          10.9888    3.9760    7.7992 N.3   458  UNL458     -0.3437
   1830 H          10.5471    4.2666    8.6703 H     458  UNL458      0.1146
   1831 H          11.7144    4.6656    7.6085 H     458  UNL458      0.1146
   1832 H          11.4763    3.1059    8.0081 H     458  UNL458      0.1146
   1833 N          10.9504    5.9261    9.9975 N.3   459  UNL459     -0.3437
   1834 H          11.0782    5.5429   10.9330 H     459  UNL459      0.1146
   1835 H          10.8553    6.9336   10.1172 H     459  UNL459      0.1146
   1836 H          11.8350    5.7833    9.5123 H     459  UNL459      0.1146
   1837 N           9.0377    5.8829   12.4117 N.3   460  UNL460     -0.3437
   1838 H           8.5960    6.4069   11.6576 H     460  UNL460      0.1146
   1839 H           9.7633    5.3174   11.9733 H     460  UNL460      0.1146
   1840 H           9.5252    6.5710   12.9838 H     460  UNL460      0.1146
   1841 N          10.9682    5.8545   14.3133 N.3   461  UNL461     -0.3437
   1842 H          10.6718    6.6376   14.8941 H     461  UNL461      0.1146
   1843 H          11.3361    6.2642   13.4559 H     461  UNL461      0.1146
   1844 H          11.7663    5.4374   14.7902 H     461  UNL461      0.1146
   1845 N          10.9849    6.0287   16.2576 N.3   462  UNL462     -0.3437
   1846 H          10.5432    6.3193   17.1287 H     462  UNL462      0.1146
   1847 H          11.7105    6.7183   16.0669 H     462  UNL462      0.1146
   1848 H          11.4724    5.1586   16.4665 H     462  UNL462      0.1146
   1849 N          10.9966    5.8729   18.4625 N.3   463  UNL463     -0.3437
   1850 H          10.5549    6.7026   18.8558 H     463  UNL463      0.1146
   1851 H          11.7222    6.2127   17.8328 H     463  UNL463      0.1146
   1852 H          11.4841    5.4212   19.2350 H     463  UNL463      0.1146
   1853 N          11.2464    6.0418   21.3666 N.3   464  UNL464     -0.3437
   1854 H          10.4632    5.4483   21.6362 H     464  UNL464      0.1146
   1855 H          11.0118    6.9798   21.6885 H     464  UNL464      0.1146
   1856 H          12.0365    5.7395   21.9346 H     464  UNL464      0.1146
   1857 N          10.9927    8.4949   -0.2465 N.3   465  UNL465     -0.3437
   1858 H          10.5510    7.6231   -0.5350 H     465  UNL465      0.1146
   1859 H          11.7183    8.2350    0.4201 H     465  UNL465      0.1146
   1860 H          11.4802    8.8483   -1.0686 H     465  UNL465      0.1146
   1861 N          10.9849    8.4988    1.8974 N.3   466  UNL466     -0.3437
   1862 H          10.5432    7.6270    1.6089 H     466  UNL466      0.1146
   1863 H          11.7105    8.2389    2.5640 H     466  UNL466      0.1146
   1864 H          11.4724    8.8522    1.0753 H     466  UNL466      0.1146
   1865 N          10.9908    8.5067    4.0726 N.3   467  UNL467     -0.3437
   1866 H          10.5491    7.6349    3.7841 H     467  UNL467      0.1146
   1867 H          11.7164    8.2467    4.7392 H     467  UNL467      0.1146
   1868 H          11.4783    8.8600    3.2505 H     467  UNL467      0.1146
   1869 N          10.9927    6.1914    8.1844 N.3   468  UNL468     -0.3437
   1870 H          10.5510    6.7154    7.4303 H     468  UNL468      0.1146
   1871 H          11.7183    5.6260    7.7461 H     468  UNL468      0.1146
   1872 H          11.4802    6.8795    8.7565 H     468  UNL468      0.1146
   1873 N          10.9485    8.1839    9.9975 N.3   469  UNL469     -0.3437
   1874 H          11.0762    7.8007   10.9330 H     469  UNL469      0.1146
   1875 H          10.8534    9.1914   10.1172 H     469  UNL469      0.1146
   1876 H          11.8331    8.0410    9.5123 H     469  UNL469      0.1146
   1877 N          10.9908    6.3256   12.0245 N.3   470  UNL470     -0.3437
   1878 H          10.5491    6.6162   12.8956 H     470  UNL470      0.1146
   1879 H          11.7164    7.0152   11.8338 H     470  UNL470      0.1146
   1880 H          11.4783    5.4555   12.2334 H     470  UNL470      0.1146
   1881 N          10.9908    8.1426   14.5204 N.3   471  UNL471     -0.3437
   1882 H          10.5491    8.6666   13.7663 H     471  UNL471      0.1146
   1883 H          11.7164    7.5771   14.0821 H     471  UNL471      0.1146
   1884 H          11.4783    8.8307   15.0925 H     471  UNL471      0.1146
   1885 N          11.1151    8.2806   16.7636 N.3   472  UNL472     -0.3437
   1886 H          12.0773    8.5712   16.5961 H     472  UNL472      0.1146
   1887 H          10.5280    8.9702   16.2964 H     472  UNL472      0.1146
   1888 H          10.9907    7.4105   16.2480 H     472  UNL472      0.1146
   1889 N          10.9966    8.2767   18.3683 N.3   473  UNL473     -0.3437
   1890 H          10.5549    8.5673   19.2394 H     473  UNL473      0.1146
   1891 H          11.7222    8.9663   18.1776 H     473  UNL473      0.1146
   1892 H          11.4841    7.4066   18.5772 H     473  UNL473      0.1146
   1893 N          11.1319    8.5754   21.6153 N.3   474  UNL474     -0.3437
   1894 H          10.5689    8.3424   22.4321 H     474  UNL474      0.1146
   1895 H          12.1029    8.4537   21.8995 H     474  UNL474      0.1146
   1896 H          10.9466    7.8455   20.9289 H     474  UNL474      0.1146
   1897 N          10.9947   10.5365   -0.6515 N.3   475  UNL475     -0.3437
   1898 H          10.5530   10.8271    0.2196 H     475  UNL475      0.1146
   1899 H          11.7203   11.2261   -0.8422 H     475  UNL475      0.1146
   1900 H          11.4822    9.6664   -0.4426 H     475  UNL475      0.1146
   1901 N          10.9966   10.3965    1.8503 N.3   476  UNL476     -0.3437
   1902 H          10.5549   10.9204    1.0962 H     476  UNL476      0.1146
   1903 H          11.7222    9.8310    1.4120 H     476  UNL476      0.1146
   1904 H          11.4841   11.0846    2.4224 H     476  UNL476      0.1146
   1905 N          11.2382   10.4037    4.0419 N.3   477  UNL477     -0.3437
   1906 H          11.7832   11.2638    4.0029 H     477  UNL477      0.1146
   1907 H          10.2615   10.6868    3.9761 H     477  UNL477      0.1146
   1908 H          11.4437    9.9016    3.1793 H     477  UNL477      0.1146
   1909 N          11.1112   10.6832    6.3329 N.3   478  UNL478     -0.3437
   1910 H          10.1453   10.9115    6.1024 H     478  UNL478      0.1146
   1911 H          11.2994    9.7829    5.8941 H     478  UNL478      0.1146
   1912 H          11.6864   11.3628    5.8372 H     478  UNL478      0.1146
   1913 N          10.9692    8.3930    8.0633 N.3   479  UNL479     -0.3437
   1914 H          11.0277    9.0513    8.8389 H     479  UNL479      0.1146
   1915 H          10.8444    8.9578    7.2244 H     479  UNL479      0.1146
   1916 H          11.8933    7.9711    7.9828 H     479  UNL479      0.1146
   1917 N          11.2386   10.5476    9.8521 N.3   480  UNL480     -0.3437
   1918 H          10.4554    9.9540   10.1217 H     480  UNL480      0.1146
   1919 H          11.0040   11.4856   10.1740 H     480  UNL480      0.1146
   1920 H          12.0287   10.2453   10.4201 H     480  UNL480      0.1146
   1921 N          11.0743   10.2666   12.1893 N.3   481  UNL481     -0.3437
   1922 H          10.4529   10.7654   11.5542 H     481  UNL481      0.1146
   1923 H          11.9805   10.7267   12.1147 H     481  UNL481      0.1146
   1924 H          10.7347   10.4660   13.1291 H     481  UNL481      0.1146
   1925 N          10.9966   10.5325   14.1372 N.3   482  UNL482     -0.3437
   1926 H          10.5549   10.8231   15.0083 H     482  UNL482      0.1146
   1927 H          11.7222   11.2221   13.9465 H     482  UNL482      0.1146
   1928 H          11.4841    9.6624   14.3461 H     482  UNL482      0.1146
   1929 N          10.9908   10.3806   16.3459 N.3   483  UNL483     -0.3437
   1930 H          10.5491   11.2104   16.7393 H     483  UNL483      0.1146
   1931 H          11.7164   10.7204   15.7163 H     483  UNL483      0.1146
   1932 H          11.4783    9.9290   17.1184 H     483  UNL483      0.1146
   1933 N          11.4512   10.5404   18.7016 N.3   484  UNL484     -0.3437
   1934 H          11.4436   10.8310   17.7249 H     484  UNL484      0.1146
   1935 H          10.8941   11.2300   19.2041 H     484  UNL484      0.1146
   1936 H          10.9222    9.6703   18.7398 H     484  UNL484      0.1146
   1937 N          11.2448   10.4167   21.4410 N.3   485  UNL485     -0.3437
   1938 H          10.5630   11.1366   21.6761 H     485  UNL485      0.1146
   1939 H          12.1439   10.8920   21.3758 H     485  UNL485      0.1146
   1940 H          11.3063    9.8106   22.2579 H     485  UNL485      0.1146
   1941 N          10.9966   12.9534   -0.4688 N.3   486  UNL486     -0.3437
   1942 H          10.5549   12.5260    0.3440 H     486  UNL486      0.1146
   1943 H          11.7222   13.5684   -0.1032 H     486  UNL486      0.1146
   1944 H          11.4841   12.2002   -0.9520 H     486  UNL486      0.1146
   1945 N          10.9966   12.9534    1.5814 N.3   487  UNL487     -0.3437
   1946 H          10.5549   12.5260    2.3941 H     487  UNL487      0.1146
   1947 H          11.7222   13.5684    1.9470 H     487  UNL487      0.1146
   1948 H          11.4841   12.2002    1.0981 H     487  UNL487      0.1146
   1949 N          10.9927   13.0066    4.0413 N.3   488  UNL488     -0.3437
   1950 H          10.5510   12.1348    3.7528 H     488  UNL488      0.1146
   1951 H          11.7183   12.7467    4.7079 H     488  UNL488      0.1146
   1952 H          11.4802   13.3599    3.2192 H     488  UNL488      0.1146
   1953 N           9.4102   12.7923    8.1383 N.3   489  UNL489     -0.3437
   1954 H           9.4026   13.0829    7.1616 H     489  UNL489      0.1146
   1955 H           8.8531   13.4819    8.6408 H     489  UNL489      0.1146
   1956 H           8.8812   11.9222    8.1765 H     489  UNL489      0.1146
   1957 N          11.0382   12.5780   10.0323 N.3   490  UNL490     -0.3437
   1958 H          11.7583   12.9290    9.4027 H     490  UNL490      0.1146
   1959 H          11.5095   12.3744   10.9125 H     490  UNL490      0.1146
   1960 H          10.4207   13.3665   10.2203 H     490  UNL490      0.1146
   1961 N          10.9927   12.9207   12.0537 N.3   491  UNL491     -0.3437
   1962 H          10.5510   12.6686   12.9367 H     491  UNL491      0.1146
   1963 H          11.7183   13.5975   12.2857 H     491  UNL491      0.1146
   1964 H          11.4802   12.0846   11.7347 H     491  UNL491      0.1146
   1965 N          11.3379   12.7923   14.1076 N.3   492  UNL492     -0.3437
   1966 H          10.3732   13.0829   13.9551 H     492  UNL492      0.1146
   1967 H          11.7424   13.4819   14.7395 H     492  UNL492      0.1146
   1968 H          11.2889   11.9222   14.6357 H     492  UNL492      0.1146
   1969 N          10.9908   12.7884   16.2537 N.3   493  UNL493     -0.3437
   1970 H          10.5491   13.0790   17.1248 H     493  UNL493      0.1146
   1971 H          11.7164   13.4780   16.0630 H     493  UNL493      0.1146
   1972 H          11.4783   11.9183   16.4626 H     493  UNL493      0.1146
   1973 N          10.9927   12.6364   18.4586 N.3   494  UNL494     -0.3437
   1974 H          10.5510   13.4662   18.8519 H     494  UNL494      0.1146
   1975 H          11.7183   12.9762   17.8289 H     494  UNL494      0.1146
   1976 H          11.4802   12.1848   19.2311 H     494  UNL494      0.1146
   1977 N          11.1268   12.7942   22.0065 N.3   495  UNL495     -0.3437
   1978 H          12.0890   13.0848   21.8390 H     495  UNL495      0.1146
   1979 H          10.5398   13.4838   21.5393 H     495  UNL495      0.1146
   1980 H          11.0024   11.9241   21.4909 H     495  UNL495      0.1146
   1981 N          11.4512   15.0481   -0.3163 N.3   496  UNL496     -0.3437
   1982 H          11.4436   15.3387   -1.2929 H     496  UNL496      0.1146
   1983 H          10.8941   15.7377    0.1863 H     496  UNL496      0.1146
   1984 H          10.9222   14.1780   -0.2780 H     496  UNL496      0.1146
   1985 N          10.9869   15.0710    1.4612 N.3   497  UNL497     -0.3437
   1986 H          10.5928   15.4235    2.3323 H     497  UNL497      0.1146
   1987 H          11.8062   15.6461    1.2705 H     497  UNL497      0.1146
   1988 H          11.3408   14.1385    1.6701 H     497  UNL497      0.1146
   1989 N          11.4512   15.0481    3.9051 N.3   498  UNL498     -0.3437
   1990 H          11.4436   15.3387    2.9285 H     498  UNL498      0.1146
   1991 H          10.8941   15.7377    4.4077 H     498  UNL498      0.1146
   1992 H          10.9222   14.1780    3.9434 H     498  UNL498      0.1146
   1993 N          11.1743   16.2537    5.7317 N.3   499  UNL499     -0.3437
   1994 H          10.3683   16.2038    6.3531 H     499  UNL499      0.1146
   1995 H          11.9931   16.2985    6.3367 H     499  UNL499      0.1146
   1996 H          11.2222   15.3512    5.2608 H     499  UNL499      0.1146
   1997 N          11.1685   16.3474    7.8385 N.3   500  UNL500     -0.3437
   1998 H          10.3624   16.2975    8.4599 H     500  UNL500      0.1146
   1999 H          11.9872   16.3922    8.4435 H     500  UNL500      0.1146
   2000 H          11.2164   15.4450    7.3676 H     500  UNL500      0.1146
   2001 N          10.9966   15.0481    9.9177 N.3   501  UNL501     -0.3437
   2002 H          10.5549   15.3387   10.7888 H     501  UNL501      0.1146
   2003 H          11.7222   15.7377    9.7270 H     501  UNL501      0.1146
   2004 H          11.4841   14.1780   10.1266 H     501  UNL501      0.1146
   2005 N          10.9908   15.0461   12.0343 N.3   502  UNL502     -0.3437
   2006 H          10.5491   15.3367   12.9054 H     502  UNL502      0.1146
   2007 H          11.7164   15.7357   11.8436 H     502  UNL502      0.1146
   2008 H          11.4783   14.1760   12.2432 H     502  UNL502      0.1146
   2009 N          11.4551   16.0930   14.4762 N.3   503  UNL503     -0.3437
   2010 H          11.4475   16.3836   13.4996 H     503  UNL503      0.1146
   2011 H          10.8980   16.7826   14.9788 H     503  UNL503      0.1146
   2012 H          10.9261   15.2229   14.5145 H     503  UNL503      0.1146
   2013 N          11.1626   16.3474   16.2950 N.3   504  UNL504     -0.3437
   2014 H          10.3566   16.2975   16.9164 H     504  UNL504      0.1146
   2015 H          11.9814   16.3922   16.9000 H     504  UNL504      0.1146
   2016 H          11.2105   15.4450   15.8241 H     504  UNL504      0.1146
   2017 N          11.1685   16.3474   18.4018 N.3   505  UNL505     -0.3437
   2018 H          10.3624   16.2975   19.0232 H     505  UNL505      0.1146
   2019 H          11.9872   16.3922   19.0068 H     505  UNL505      0.1146
   2020 H          11.2164   15.4450   17.9309 H     505  UNL505      0.1146
   2021 N          10.9869   15.0461   20.4810 N.3   506  UNL506     -0.3437
   2022 H          10.5452   15.3367   21.3521 H     506  UNL506      0.1146
   2023 H          11.7125   15.7357   20.2903 H     506  UNL506      0.1146
   2024 H          11.4744   14.1760   20.6899 H     506  UNL506      0.1146
   2025 N          13.0328   -0.8433    3.9990 N.3   507  UNL507     -0.3437
   2026 H          13.9766   -1.2265    4.0263 H     507  UNL507      0.1146
   2027 H          13.1353    0.1642    4.1125 H     507  UNL507      0.1146
   2028 H          12.6990   -0.9861    3.0469 H     507  UNL507      0.1146
   2029 N          13.0103   -0.9024    5.7826 N.3   508  UNL508     -0.3437
   2030 H          12.5686   -0.0726    6.1760 H     508  UNL508      0.1146
   2031 H          13.7359   -0.5626    5.1530 H     508  UNL508      0.1146
   2032 H          13.4978   -1.3540    6.5551 H     508  UNL508      0.1146
   2033 N          11.9693   -0.6137    7.6742 N.3   509  UNL509     -0.3437
   2034 H          11.5276   -0.3231    8.5453 H     509  UNL509      0.1146
   2035 H          12.6949    0.0759    7.4835 H     509  UNL509      0.1146
   2036 H          12.4568   -1.4838    7.8831 H     509  UNL509      0.1146
   2037 N          11.2996   -0.8610   12.0284 N.3   510  UNL510     -0.3437
   2038 H          11.3311   -1.3887   12.8995 H     510  UNL510      0.1146
   2039 H          10.3129   -0.6923   11.8377 H     510  UNL510      0.1146
   2040 H          11.7049    0.0503   12.2373 H     510  UNL510      0.1146
   2041 N          13.1431   -0.4675   18.7736 N.3   511  UNL511     -0.3437
   2042 H          12.7014   -1.1256   18.1331 H     511  UNL511      0.1146
   2043 H          13.8687   -0.9926   19.2596 H     511  UNL511      0.1146
   2044 H          13.6306    0.2096   18.1885 H     511  UNL511      0.1146
   2045 N          13.0220    1.5093   -0.6437 N.3   512  UNL512     -0.3437
   2046 H          12.5803    1.7999    0.2274 H     512  UNL512      0.1146
   2047 H          13.7476    2.1989   -0.8344 H     512  UNL512      0.1146
   2048 H          13.5095    0.6392   -0.4348 H     512  UNL512      0.1146
   2049 N          13.2533    1.8092    1.5926 N.3   513  UNL513     -0.3437
   2050 H          12.3089    1.4714    1.4131 H     513  UNL513      0.1146
   2051 H          13.3930    1.7313    2.5990 H     513  UNL513      0.1146
   2052 H          13.8808    1.1275    1.1685 H     513  UNL513      0.1146
   2053 N          13.2930    1.7988    3.6935 N.3   514  UNL514     -0.3437
   2054 H          13.9129    1.0385    3.4177 H     514  UNL514      0.1146
   2055 H          12.3621    1.5308    3.3773 H     514  UNL514      0.1146
   2056 H          13.2602    1.7790    4.7118 H     514  UNL514      0.1146
   2057 N          13.1404    1.5132    6.1964 N.3   515  UNL515     -0.3437
   2058 H          14.1027    1.8038    6.0289 H     515  UNL515      0.1146
   2059 H          12.5534    2.2028    5.7292 H     515  UNL515      0.1146
   2060 H          13.0160    0.6431    5.6808 H     515  UNL515      0.1146
   2061 N          13.2714    1.7705    7.8562 N.3   516  UNL516     -0.3437
   2062 H          13.8164    0.9440    7.6151 H     516  UNL516      0.1146
   2063 H          12.2947    1.4814    7.8269 H     516  UNL516      0.1146
   2064 H          13.4769    1.9669    8.8347 H     516  UNL516      0.1146
   2065 N          12.9549    0.6351    9.9894 N.3   517  UNL517     -0.3437
   2066 H          13.3710    1.4912   10.3531 H     517  UNL517      0.1146
   2067 H          13.6788    0.1867    9.4297 H     517  UNL517      0.1146
   2068 H          12.8079    0.0296   10.7957 H     517  UNL517      0.1146
   2069 N          11.2235    1.7885   12.0966 N.3   518  UNL518     -0.3437
   2070 H          10.6713    1.8597   12.9501 H     518  UNL518      0.1146
   2071 H          12.1594    1.5119   12.3898 H     518  UNL518      0.1146
   2072 H          10.8443    0.9948   11.5822 H     518  UNL518      0.1146
   2073 N          12.8676    0.5173   14.1697 N.3   519  UNL519     -0.3437
   2074 H          12.9261   -0.1400   14.9462 H     519  UNL519      0.1146
   2075 H          12.7428    1.4375   14.5894 H     519  UNL519      0.1146
   2076 H          13.7917    0.5276   13.7403 H     519  UNL519      0.1146
   2077 N          13.0220   -0.4419   16.2615 N.3   520  UNL520     -0.3437
   2078 H          12.5803   -0.1513   17.1326 H     520  UNL520      0.1146
   2079 H          13.7476    0.2477   16.0708 H     520  UNL520      0.1146
   2080 H          13.5095   -1.3120   16.4704 H     520  UNL520      0.1146
   2081 N          13.0181    1.7275   18.6958 N.3   521  UNL521     -0.3437
   2082 H          12.5764    0.8557   18.4073 H     521  UNL521      0.1146
   2083 H          13.7437    1.4676   19.3624 H     521  UNL521      0.1146
   2084 H          13.5056    2.0808   17.8737 H     521  UNL521      0.1146
   2085 N          12.9741   -0.3704   20.5327 N.3   522  UNL522     -0.3437
   2086 H          12.7411   -0.9089   21.3658 H     522  UNL522      0.1146
   2087 H          13.3854    0.5000   20.8667 H     522  UNL522      0.1146
   2088 H          13.7276   -0.8783   20.0716 H     522  UNL522      0.1146
   2089 N          13.0181    3.9191   -0.2404 N.3   523  UNL523     -0.3437
   2090 H          12.5764    3.2610   -0.8808 H     523  UNL523      0.1146
   2091 H          13.7437    3.3941    0.2457 H     523  UNL523      0.1146
   2092 H          13.5056    4.5962   -0.8255 H     523  UNL523      0.1146
   2093 N          13.0220    3.7150    1.8976 N.3   524  UNL524     -0.3437
   2094 H          12.5803    3.8568    0.9903 H     524  UNL524      0.1146
   2095 H          13.7476    3.0148    1.7504 H     524  UNL524      0.1146
   2096 H          13.5095    4.5839    2.1115 H     524  UNL524      0.1146
   2097 N          13.0142    3.7111    4.0141 N.3   525  UNL525     -0.3437
   2098 H          12.5725    3.8529    3.1069 H     525  UNL525      0.1146
   2099 H          13.7398    3.0109    3.8669 H     525  UNL525      0.1146
   2100 H          13.5017    4.5800    4.2281 H     525  UNL525      0.1146
   2101 N          13.0181    3.9379    5.7390 N.3   526  UNL526     -0.3437
   2102 H          12.5764    3.5105    6.5517 H     526  UNL526      0.1146
   2103 H          13.7437    4.5529    6.1046 H     526  UNL526      0.1146
   2104 H          13.5056    3.1848    5.2557 H     526  UNL526      0.1146
   2105 N          13.0142    3.9340    7.8516 N.3   527  UNL527     -0.3437
   2106 H          12.5725    3.5066    8.6644 H     527  UNL527      0.1146
   2107 H          13.7398    4.5490    8.2172 H     527  UNL527      0.1146
   2108 H          13.5017    3.1809    7.3684 H     527  UNL527      0.1146
   2109 N          12.9738    3.6683    9.9917 N.3   528  UNL528     -0.3437
   2110 H          13.1016    3.2851   10.9272 H     528  UNL528      0.1146
   2111 H          12.8787    4.6758   10.1114 H     528  UNL528      0.1146
   2112 H          13.8584    3.5255    9.5064 H     528  UNL528      0.1146
   2113 N          13.0122    3.7189   12.4570 N.3   529  UNL529     -0.3437
   2114 H          12.5705    3.8607   11.5497 H     529  UNL529      0.1146
   2115 H          13.7378    3.0187   12.3097 H     529  UNL529      0.1146
   2116 H          13.4997    4.5878   12.6709 H     529  UNL529      0.1146
   2117 N          12.9738    3.9712   14.3288 N.3   530  UNL530     -0.3437
   2118 H          13.1016    3.3290   13.5481 H     530  UNL530      0.1146
   2119 H          12.8787    3.3884   15.1593 H     530  UNL530      0.1146
   2120 H          13.8584    4.4662   14.4330 H     530  UNL530      0.1146
   2121 N          13.1318    4.0006   16.2791 N.3   531  UNL531     -0.3437
   2122 H          13.5876    3.1222   16.0362 H     531  UNL531      0.1146
   2123 H          12.1444    3.7803   16.4013 H     531  UNL531      0.1146
   2124 H          13.4800    4.2516   17.2033 H     531  UNL531      0.1146
   2125 N          13.2236    3.9841   18.8174 N.3   532  UNL532     -0.3437
   2126 H          12.9883    3.0391   19.1174 H     532  UNL532      0.1146
   2127 H          14.1067    3.9075   18.3147 H     532  UNL532      0.1146
   2128 H          12.5252    4.2398   18.1208 H     532  UNL532      0.1146
   2129 N          13.2098    1.5227   20.7741 N.3   533  UNL533     -0.3437
   2130 H          12.6576    1.7312   19.9434 H     533  UNL533      0.1146
   2131 H          14.1457    1.8792   20.5861 H     533  UNL533      0.1146
   2132 H          12.8306    2.1076   21.5175 H     533  UNL533      0.1146
   2133 N          13.0142    6.1976   -0.6029 N.3   534  UNL534     -0.3437
   2134 H          12.5725    5.7702    0.2098 H     534  UNL534      0.1146
   2135 H          13.7398    6.8126   -0.2373 H     534  UNL534      0.1146
   2136 H          13.5017    5.4445   -1.0862 H     534  UNL534      0.1146
   2137 N          12.9777    6.1732    1.5453 N.3   535  UNL535     -0.3437
   2138 H          13.1055    5.1875    1.3206 H     535  UNL535      0.1146
   2139 H          12.8826    6.2201    2.5588 H     535  UNL535      0.1146
   2140 H          13.8623    6.6285    1.3249 H     535  UNL535      0.1146
   2141 N          13.0371    6.1732    4.0030 N.3   536  UNL536     -0.3437
   2142 H          12.8363    5.1875    3.8402 H     536  UNL536      0.1146
   2143 H          14.0214    6.2201    4.2629 H     536  UNL536      0.1146
   2144 H          12.9646    6.6285    3.0943 H     536  UNL536      0.1146
   2145 N          13.0181    6.1859    5.7468 N.3   537  UNL537     -0.3437
   2146 H          12.5764    5.7585    6.5595 H     537  UNL537      0.1146
   2147 H          13.7437    6.8009    6.1124 H     537  UNL537      0.1146
   2148 H          13.5056    5.4328    5.2635 H     537  UNL537      0.1146
   2149 N          13.0142    5.8624    8.1422 N.3   538  UNL538     -0.3437
   2150 H          12.5725    6.5295    7.5112 H     538  UNL538      0.1146
   2151 H          13.7398    5.3985    7.5975 H     538  UNL538      0.1146
   2152 H          13.5017    6.4189    8.8429 H     538  UNL538      0.1146
   2153 N          13.0220    6.0287    9.9216 N.3   539  UNL539     -0.3437
   2154 H          12.5803    6.3193   10.7927 H     539  UNL539      0.1146
   2155 H          13.7476    6.7183    9.7309 H     539  UNL539      0.1146
   2156 H          13.5095    5.1586   10.1305 H     539  UNL539      0.1146
   2157 N          13.4379    6.2363   12.2309 N.3   540  UNL540     -0.3437
   2158 H          12.6059    6.5592   11.7391 H     540  UNL540      0.1146
   2159 H          13.1517    6.0840   13.1970 H     540  UNL540      0.1146
   2160 H          13.6483    5.3142   11.8516 H     540  UNL540      0.1146
   2161 N          13.0220    6.0287   14.1450 N.3   541  UNL541     -0.3437
   2162 H          12.5803    6.3193   15.0161 H     541  UNL541      0.1146
   2163 H          13.7476    6.7183   13.9543 H     541  UNL541      0.1146
   2164 H          13.5095    5.1586   14.3539 H     541  UNL541      0.1146
   2165 N          13.0220    6.0287   16.2557 N.3   542  UNL542     -0.3437
   2166 H          12.5803    6.3193   17.1268 H     542  UNL542      0.1146
   2167 H          13.7476    6.7183   16.0650 H     542  UNL542      0.1146
   2168 H          13.5095    5.1586   16.4646 H     542  UNL542      0.1146
   2169 N          13.2553    5.8252   18.7785 N.3   543  UNL543     -0.3437
   2170 H          12.3108    6.2029   18.8392 H     543  UNL543      0.1146
   2171 H          13.3949    5.5737   17.8009 H     543  UNL543      0.1146
   2172 H          13.8828    6.6075   18.9596 H     543  UNL543      0.1146
   2173 N          13.0122    4.2919   20.8163 N.3   544  UNL544     -0.3437
   2174 H          12.5705    3.4201   20.5278 H     544  UNL544      0.1146
   2175 H          13.7378    4.0319   21.4829 H     544  UNL544      0.1146
   2176 H          13.4997    4.6452   19.9942 H     544  UNL544      0.1146
   2177 N          13.0181    8.5008   -0.1996 N.3   545  UNL545     -0.3437
   2178 H          12.5764    7.6290   -0.4881 H     545  UNL545      0.1146
   2179 H          13.7437    8.2409    0.4670 H     545  UNL545      0.1146
   2180 H          13.5056    8.8542   -1.0217 H     545  UNL545      0.1146
   2181 N          13.0161    8.5008    1.8818 N.3   546  UNL546     -0.3437
   2182 H          12.5744    7.6290    1.5933 H     546  UNL546      0.1146
   2183 H          13.7417    8.2409    2.5484 H     546  UNL546      0.1146
   2184 H          13.5036    8.8542    1.0597 H     546  UNL546      0.1146
   2185 N          13.0161    8.4949    4.0101 N.3   547  UNL547     -0.3437
   2186 H          12.5744    7.6231    3.7216 H     547  UNL547      0.1146
   2187 H          13.7417    8.2350    4.6767 H     547  UNL547      0.1146
   2188 H          13.5036    8.8483    3.1880 H     547  UNL547      0.1146
   2189 N          13.0103    8.5067    6.1852 N.3   548  UNL548     -0.3437
   2190 H          12.5686    7.6349    5.8967 H     548  UNL548      0.1146
   2191 H          13.7359    8.2467    6.8518 H     548  UNL548      0.1146
   2192 H          13.4978    8.8600    5.3631 H     548  UNL548      0.1146
   2193 N          13.0181    8.1287   10.0079 N.3   549  UNL549     -0.3437
   2194 H          12.5764    8.9584   10.4013 H     549  UNL549      0.1146
   2195 H          13.7437    8.4685    9.3783 H     549  UNL549      0.1146
   2196 H          13.5056    7.6770   10.7804 H     549  UNL549      0.1146
   2197 N          13.0181    8.4988   12.3578 N.3   550  UNL550     -0.3437
   2198 H          12.5764    7.6270   12.0693 H     550  UNL550      0.1146
   2199 H          13.7437    8.2389   13.0244 H     550  UNL550      0.1146
   2200 H          13.5056    8.8522   11.5357 H     550  UNL550      0.1146
   2201 N          12.9816    8.4907   14.3249 N.3   551  UNL551     -0.3437
   2202 H          13.1094    7.8484   13.5442 H     551  UNL551      0.1146
   2203 H          12.8865    7.9079   15.1554 H     551  UNL551      0.1146
   2204 H          13.8662    8.9857   14.4290 H     551  UNL551      0.1146
   2205 N          13.2586    8.2842   16.7749 N.3   552  UNL552     -0.3437
   2206 H          13.9832    7.8256   16.2245 H     552  UNL552      0.1146
   2207 H          13.2244    9.2483   16.4466 H     552  UNL552      0.1146
   2208 H          12.3776    7.8589   16.4895 H     552  UNL552      0.1146
   2209 N          13.0593    8.5558   18.6304 N.3   553  UNL553     -0.3437
   2210 H          12.5237    7.8785   18.0894 H     553  UNL553      0.1146
   2211 H          13.2848    8.0963   19.5115 H     553  UNL553      0.1146
   2212 H          13.9446    8.6708   18.1391 H     553  UNL553      0.1146
   2213 N          13.0142    6.2755   20.9135 N.3   554  UNL554     -0.3437
   2214 H          12.5725    6.4173   20.0062 H     554  UNL554      0.1146
   2215 H          13.7398    5.5753   20.7662 H     554  UNL554      0.1146
   2216 H          13.5017    7.1443   21.1274 H     554  UNL554      0.1146
   2217 N          13.0593   10.3266   -0.5475 N.3   555  UNL555     -0.3437
   2218 H          12.5237   10.7927    0.1834 H     555  UNL555      0.1146
   2219 H          13.2848   11.0463   -1.2328 H     555  UNL555      0.1146
   2220 H          13.9446   10.0590   -0.1197 H     555  UNL555      0.1146
   2221 N          13.2365   10.7439    2.0511 N.3   556  UNL556     -0.3437
   2222 H          13.7250   10.1300    1.4008 H     556  UNL556      0.1146
   2223 H          12.9997   11.5820    1.5221 H     556  UNL556      0.1146
   2224 H          12.3513   10.2843    2.2601 H     556  UNL556      0.1146
   2225 N          13.0181   10.5404    3.5856 N.3   557  UNL557     -0.3437
   2226 H          12.5764   10.8310    4.4567 H     557  UNL557      0.1146
   2227 H          13.7437   11.2300    3.3949 H     557  UNL557      0.1146
   2228 H          13.5056    9.6703    3.7945 H     557  UNL557      0.1146
   2229 N          13.0230   10.3414    5.8333 N.3   558  UNL558     -0.3437
   2230 H          13.2457   10.3434    6.8277 H     558  UNL558      0.1146
   2231 H          12.6432   11.2646    5.6287 H     558  UNL558      0.1146
   2232 H          13.9163   10.2909    5.3456 H     558  UNL558      0.1146
   2233 N          12.9777   10.6809    7.8794 N.3   559  UNL559     -0.3437
   2234 H          13.1055    9.6953    7.6546 H     559  UNL559      0.1146
   2235 H          12.8826   10.7279    8.8929 H     559  UNL559      0.1146
   2236 H          13.8623   11.1362    7.6590 H     559  UNL559      0.1146
   2237 N          13.0083   10.3701   10.2276 N.3   560  UNL560     -0.3437
   2238 H          13.1291   11.1532   10.8683 H     560  UNL560      0.1146
   2239 H          12.7749   10.7797    9.3242 H     560  UNL560      0.1146
   2240 H          13.9314    9.9530   10.1166 H     560  UNL560      0.1146
   2241 N          13.0220   10.5404   12.0323 N.3   561  UNL561     -0.3437
   2242 H          12.5803   10.8310   12.9034 H     561  UNL561      0.1146
   2243 H          13.7476   11.2300   11.8416 H     561  UNL561      0.1146
   2244 H          13.5095    9.6703   12.2412 H     561  UNL561      0.1146
   2245 N          13.0142   10.5404   14.1450 N.3   562  UNL562     -0.3437
   2246 H          12.5725   10.8310   15.0161 H     562  UNL562      0.1146
   2247 H          13.7398   11.2300   13.9543 H     562  UNL562      0.1146
   2248 H          13.5017    9.6703   14.3539 H     562  UNL562      0.1146
   2249 N          12.9935   10.3662   16.4299 N.3   563  UNL563     -0.3437
   2250 H          12.6972   11.1493   17.0107 H     563  UNL563      0.1146
   2251 H          13.3614   10.7758   15.5724 H     563  UNL563      0.1146
   2252 H          13.7917    9.9491   16.9068 H     563  UNL563      0.1146
   2253 N          13.0103   10.5404   18.3742 N.3   564  UNL564     -0.3437
   2254 H          12.5686   10.8310   19.2453 H     564  UNL564      0.1146
   2255 H          13.7359   11.2300   18.1835 H     564  UNL564      0.1146
   2256 H          13.4978    9.6703   18.5831 H     564  UNL564      0.1146
   2257 N          13.0103    8.8035   20.8182 N.3   565  UNL565     -0.3437
   2258 H          12.5686    7.9317   20.5297 H     565  UNL565      0.1146
   2259 H          13.7359    8.5436   21.4848 H     565  UNL565      0.1146
   2260 H          13.4978    9.1568   19.9961 H     565  UNL565      0.1146
   2261 N          13.0181   12.9573   -0.5000 N.3   566  UNL566     -0.3437
   2262 H          12.5764   12.5299    0.3127 H     566  UNL566      0.1146
   2263 H          13.7437   13.5723   -0.1344 H     566  UNL566      0.1146
   2264 H          13.5056   12.2042   -0.9833 H     566  UNL566      0.1146
   2265 N          13.0181   12.9573    1.6126 N.3   567  UNL567     -0.3437
   2266 H          12.5764   12.5299    2.4254 H     567  UNL567      0.1146
   2267 H          13.7437   13.5723    1.9782 H     567  UNL567      0.1146
   2268 H          13.5056   12.2042    1.1294 H     567  UNL567      0.1146
   2269 N          13.0200   13.0124    4.0101 N.3   568  UNL568     -0.3437
   2270 H          12.5783   12.1406    3.7216 H     568  UNL568      0.1146
   2271 H          13.7456   12.7525    4.6767 H     568  UNL568      0.1146
   2272 H          13.5075   13.3658    3.1880 H     568  UNL568      0.1146
   2273 N          11.1815   12.5753    8.1858 N.3   569  UNL569     -0.3437
   2274 H          12.1648   12.8338    8.1182 H     569  UNL569      0.1146
   2275 H          10.7030   13.3886    8.5705 H     569  UNL569      0.1146
   2276 H          10.8492   12.4815    7.2271 H     569  UNL569      0.1146
   2277 N          13.4785   12.7923   10.2451 N.3   570  UNL570     -0.3437
   2278 H          13.4709   13.0829    9.2684 H     570  UNL570      0.1146
   2279 H          12.9214   13.4819   10.7476 H     570  UNL570      0.1146
   2280 H          12.9495   11.9222   10.2833 H     570  UNL570      0.1146
   2281 N          12.9885   13.0038   12.2077 N.3   571  UNL571     -0.3437
   2282 H          13.6169   13.3266   12.9420 H     571  UNL571      0.1146
   2283 H          13.5715   12.8514   11.3859 H     571  UNL571      0.1146
   2284 H          12.6668   12.0817   12.4986 H     571  UNL571      0.1146
   2285 N          13.2208   12.6220   14.1485 N.3   572  UNL572     -0.3437
   2286 H          12.5993   13.4051   13.9513 H     572  UNL572      0.1146
   2287 H          14.1269   13.0316   14.3710 H     572  UNL572      0.1146
   2288 H          12.8811   12.2049   15.0140 H     572  UNL572      0.1146
   2289 N          13.0181   12.7884   16.2498 N.3   573  UNL573     -0.3437
   2290 H          12.5764   13.0790   17.1209 H     573  UNL573      0.1146
   2291 H          13.7437   13.4780   16.0591 H     573  UNL573      0.1146
   2292 H          13.5056   11.9183   16.4587 H     573  UNL573      0.1146
   2293 N          13.4623   12.9674   18.5958 N.3   574  UNL574     -0.3437
   2294 H          13.2439   12.5904   17.6747 H     574  UNL574      0.1146
   2295 H          12.6528   13.5214   18.8718 H     574  UNL574      0.1146
   2296 H          13.4848   12.1687   19.2281 H     574  UNL574      0.1146
   2297 N          13.0200   10.9656   20.8104 N.3   575  UNL575     -0.3437
   2298 H          12.5783   10.0938   20.5219 H     575  UNL575      0.1146
   2299 H          13.7456   10.7056   21.4770 H     575  UNL575      0.1146
   2300 H          13.5075   11.3189   19.9883 H     575  UNL575      0.1146
   2301 N          13.4168   15.9066   -0.3215 N.3   576  UNL576     -0.3437
   2302 H          12.8251   16.2717    0.4235 H     576  UNL576      0.1146
   2303 H          12.7875   15.4585   -0.9860 H     576  UNL576      0.1146
   2304 H          13.7987   16.7204   -0.8013 H     576  UNL576      0.1146
   2305 N          13.1977   16.3162    1.4985 N.3   577  UNL577     -0.3437
   2306 H          12.3917   16.2663    2.1200 H     577  UNL577      0.1146
   2307 H          14.0165   16.3610    2.1035 H     577  UNL577      0.1146
   2308 H          13.2456   15.4137    1.0277 H     577  UNL577      0.1146
   2309 N          13.2961   16.2019    4.0725 N.3   578  UNL578     -0.3437
   2310 H          13.5180   15.2297    3.8628 H     578  UNL578      0.1146
   2311 H          13.7313   16.7547    3.3353 H     578  UNL578      0.1146
   2312 H          12.2905   16.2959    3.9375 H     578  UNL578      0.1146
   2313 N          13.3930   15.0076    5.6943 N.3   579  UNL579     -0.3437
   2314 H          13.6519   14.5467    6.5654 H     579  UNL579      0.1146
   2315 H          12.4317   14.7282    5.5036 H     579  UNL579      0.1146
   2316 H          13.3594   16.0044    5.9032 H     579  UNL579      0.1146
   2317 N          13.0142   15.0461    7.8050 N.3   580  UNL580     -0.3437
   2318 H          12.5725   15.3367    8.6761 H     580  UNL580      0.1146
   2319 H          13.7398   15.7357    7.6143 H     580  UNL580      0.1146
   2320 H          13.5017   14.1760    8.0139 H     580  UNL580      0.1146
   2321 N          13.4785   16.0305   10.2490 N.3   581  UNL581     -0.3437
   2322 H          13.4709   16.3211    9.2723 H     581  UNL581      0.1146
   2323 H          12.9214   16.7201   10.7515 H     581  UNL581      0.1146
   2324 H          12.9495   15.1604   10.2872 H     581  UNL581      0.1146
   2325 N          13.0181   15.0520   12.0245 N.3   582  UNL582     -0.3437
   2326 H          12.5764   15.3426   12.8956 H     582  UNL582      0.1146
   2327 H          13.7437   15.7416   11.8338 H     582  UNL582      0.1146
   2328 H          13.5056   14.1819   12.2334 H     582  UNL582      0.1146
   2329 N          12.7959   15.0618   14.3486 N.3   583  UNL583     -0.3437
   2330 H          13.1187   15.3524   15.2704 H     583  UNL583      0.1146
   2331 H          13.1606   15.7514   13.6930 H     583  UNL583      0.1146
   2332 H          13.2842   14.1917   14.1415 H     583  UNL583      0.1146
   2333 N          13.1404   15.0481   16.7714 N.3   584  UNL584     -0.3437
   2334 H          14.1027   15.3387   16.6040 H     584  UNL584      0.1146
   2335 H          12.5534   15.7377   16.3042 H     584  UNL584      0.1146
   2336 H          13.0160   14.1780   16.2558 H     584  UNL584      0.1146
   2337 N          13.3930   15.0076   18.3683 N.3   585  UNL585     -0.3437
   2338 H          13.6519   14.5467   19.2394 H     585  UNL585      0.1146
   2339 H          12.4317   14.7282   18.1776 H     585  UNL585      0.1146
   2340 H          13.3594   16.0044   18.5772 H     585  UNL585      0.1146
   2341 N          12.8931   15.0520   20.4849 N.3   586  UNL586     -0.3437
   2342 H          12.4514   15.3426   21.3560 H     586  UNL586      0.1146
   2343 H          13.6187   15.7416   20.2942 H     586  UNL586      0.1146
   2344 H          13.3806   14.1819   20.6938 H     586  UNL586      0.1146
   2345 N          15.0474   -0.5098    3.8728 N.3   587  UNL587     -0.3437
   2346 H          14.6057   -1.4221    3.7688 H     587  UNL587      0.1146
   2347 H          15.7730   -0.6278    4.5785 H     587  UNL587      0.1146
   2348 H          15.5349   -0.3320    2.9958 H     587  UNL587      0.1146
   2349 N          15.0474   -0.5225    6.0257 N.3   588  UNL588     -0.3437
   2350 H          14.6057   -1.3943    5.7372 H     588  UNL588      0.1146
   2351 H          15.7730   -0.7824    6.6923 H     588  UNL588      0.1146
   2352 H          15.5349   -0.1691    5.2036 H     588  UNL588      0.1146
   2353 N          13.0884   -0.7505    7.8109 N.3   589  UNL589     -0.3437
   2354 H          12.6467   -0.4599    8.6820 H     589  UNL589      0.1146
   2355 H          13.8140   -0.0609    7.6202 H     589  UNL589      0.1146
   2356 H          13.5759   -1.6206    8.0198 H     589  UNL589      0.1146
   2357 N          15.2728   -0.5675    7.9082 N.3   590  UNL590     -0.3437
   2358 H          14.3284   -0.9445    7.9728 H     590  UNL590      0.1146
   2359 H          15.4125   -0.0135    8.7520 H     590  UNL590      0.1146
   2360 H          15.9003   -1.3662    7.9896 H     590  UNL590      0.1146
   2361 N          13.0571   -0.5698   12.0789 N.3   591  UNL591     -0.3437
   2362 H          12.6154   -0.9973   12.8917 H     591  UNL591      0.1146
   2363 H          13.7827    0.0452   12.4445 H     591  UNL591      0.1146
   2364 H          13.5446   -1.3230   11.5956 H     591  UNL591      0.1146
   2365 N          15.2728   -0.5748   14.6234 N.3   592  UNL592     -0.3437
   2366 H          14.3284   -0.4530   14.2608 H     592  UNL592      0.1146
   2367 H          15.4125   -1.5803   14.7114 H     592  UNL592      0.1146
   2368 H          15.9003   -0.2680   13.8814 H     592  UNL592      0.1146
   2369 N          15.2685   -0.6683   -0.6169 N.3   593  UNL593     -0.3437
   2370 H          15.9265   -0.7184    0.1595 H     593  UNL593      0.1146
   2371 H          14.3404   -0.6408   -0.1972 H     593  UNL593      0.1146
   2372 H          15.4097    0.2449   -1.0463 H     593  UNL593      0.1146
   2373 N          15.0395   -0.5760    1.8386 N.3   594  UNL594     -0.3437
   2374 H          14.5978   -0.0520    1.0845 H     594  UNL594      0.1146
   2375 H          15.7651   -1.1415    1.4003 H     594  UNL594      0.1146
   2376 H          15.5270    0.1121    2.4107 H     594  UNL594      0.1146
   2377 N          15.2596    1.6673    3.8186 N.3   595  UNL595     -0.3437
   2378 H          15.5916    0.9899    4.5037 H     595  UNL595      0.1146
   2379 H          15.3310    1.2077    2.9119 H     595  UNL595      0.1146
   2380 H          14.2630    1.7823    3.9974 H     595  UNL595      0.1146
   2381 N          15.2461    1.8295    5.8775 N.3   596  UNL596     -0.3437
   2382 H          14.6247    1.5626    6.6397 H     596  UNL596      0.1146
   2383 H          16.1523    1.4181    6.0968 H     596  UNL596      0.1146
   2384 H          14.9065    1.3370    5.0526 H     596  UNL596      0.1146
   2385 N          15.0474    1.5171    7.7992 N.3   597  UNL597     -0.3437
   2386 H          14.6057    1.8077    8.6703 H     597  UNL597      0.1146
   2387 H          15.7730    2.2067    7.6085 H     597  UNL597      0.1146
   2388 H          15.5349    0.6470    8.0081 H     597  UNL597      0.1146
   2389 N          15.2139    1.5366    9.8886 N.3   598  UNL598     -0.3437
   2390 H          15.4566    0.5509    9.9778 H     598  UNL598      0.1146
   2391 H          14.1985    1.5835    9.9608 H     598  UNL598      0.1146
   2392 H          15.5762    1.9918   10.7251 H     598  UNL598      0.1146
   2393 N          15.1188   -0.6663   12.0284 N.3   599  UNL599     -0.3437
   2394 H          14.6033   -0.7839   12.8995 H     599  UNL599      0.1146
   2395 H          15.1235    0.3347   11.8377 H     599  UNL599      0.1146
   2396 H          16.0841   -0.9169   12.2373 H     599  UNL599      0.1146
   2397 N          14.9992    1.4125   14.2228 N.3   600  UNL600     -0.3437
   2398 H          15.1269    1.0293   15.1584 H     600  UNL600      0.1146
   2399 H          14.9041    2.4200   14.3426 H     600  UNL600      0.1146
   2400 H          15.8838    1.2697   13.7376 H     600  UNL600      0.1146
   2401 N          15.0435   -0.4732   16.2537 N.3   601  UNL601     -0.3437
   2402 H          14.6018   -0.1826   17.1248 H     601  UNL601      0.1146
   2403 H          15.7691    0.2164   16.0630 H     601  UNL601      0.1146
   2404 H          15.5310   -1.3433   16.4626 H     601  UNL601      0.1146
   2405 N          15.0219   -0.4117   18.7961 N.3   602  UNL602     -0.3437
   2406 H          15.0803    0.4613   18.2737 H     602  UNL602      0.1146
   2407 H          14.8970   -1.1468   18.1015 H     602  UNL602      0.1146
   2408 H          15.9460   -0.5602   19.1991 H     602  UNL602      0.1146
   2409 N          15.2932    1.5263   21.4291 N.3   603  UNL603     -0.3437
   2410 H          14.5100    0.9327   21.6987 H     603  UNL603      0.1146
   2411 H          15.0586    2.4642   21.7510 H     603  UNL603      0.1146
   2412 H          16.0834    1.2239   21.9971 H     603  UNL603      0.1146
   2413 N          15.0435    3.9892   -0.3123 N.3   604  UNL604     -0.3437
   2414 H          14.6018    3.1174   -0.6008 H     604  UNL604      0.1146
   2415 H          15.7691    3.7292    0.3543 H     604  UNL604      0.1146
   2416 H          15.5310    4.3425   -1.1344 H     604  UNL604      0.1146
   2417 N          15.0258    1.6412    1.7195 N.3   605  UNL605     -0.3437
   2418 H          15.0842    2.2995    2.4951 H     605  UNL605      0.1146
   2419 H          14.9009    2.2059    0.8805 H     605  UNL605      0.1146
   2420 H          15.9499    1.2192    1.6390 H     605  UNL605      0.1146
   2421 N          15.0070    3.8566    3.9699 N.3   606  UNL606     -0.3437
   2422 H          15.1347    4.5215    3.2085 H     606  UNL606      0.1146
   2423 H          14.9119    2.9418    3.5310 H     606  UNL606      0.1146
   2424 H          15.8916    3.8349    4.4753 H     606  UNL606      0.1146
   2425 N          15.0395    3.7228    6.1229 N.3   607  UNL607     -0.3437
   2426 H          14.5978    3.8646    5.2156 H     607  UNL607      0.1146
   2427 H          15.7651    3.0226    5.9757 H     607  UNL607      0.1146
   2428 H          15.5270    4.5917    6.3368 H     607  UNL607      0.1146
   2429 N          15.0031    3.6742    7.8849 N.3   608  UNL608     -0.3437
   2430 H          15.1308    3.2910    8.8204 H     608  UNL608      0.1146
   2431 H          14.9080    4.6817    8.0046 H     608  UNL608      0.1146
   2432 H          15.8877    3.5314    7.3996 H     608  UNL608      0.1146
   2433 N          14.9424    3.7651   10.1233 N.3   609  UNL609     -0.3437
   2434 H          15.2652    4.0557   11.0451 H     609  UNL609      0.1146
   2435 H          15.3071    4.4547    9.4677 H     609  UNL609      0.1146
   2436 H          15.4306    2.8950    9.9161 H     609  UNL609      0.1146
   2437 N          15.0180    1.7107   12.0668 N.3   610  UNL610     -0.3437
   2438 H          15.0764    1.0533   12.8433 H     610  UNL610      0.1146
   2439 H          14.8931    2.6308   12.4866 H     610  UNL610      0.1146
   2440 H          15.9421    1.7210   11.6374 H     610  UNL610      0.1146
   2441 N          15.0474    3.6388   14.5165 N.3   611  UNL611     -0.3437
   2442 H          14.6057    4.1628   13.7624 H     611  UNL611      0.1146
   2443 H          15.7730    3.0733   14.0782 H     611  UNL611      0.1146
   2444 H          15.5349    4.3269   15.0886 H     611  UNL611      0.1146
   2445 N          15.0968    3.6323   16.2694 N.3   612  UNL612     -0.3437
   2446 H          14.5937    4.4924   16.4824 H     612  UNL612      0.1146
   2447 H          16.0424    3.9155   16.0160 H     612  UNL612      0.1146
   2448 H          15.1811    3.1302   17.1521 H     612  UNL612      0.1146
   2449 N          15.0356    3.6131   18.4586 N.3   613  UNL613     -0.3437
   2450 H          14.5939    4.4429   18.8519 H     613  UNL613      0.1146
   2451 H          15.7612    3.9529   17.8289 H     613  UNL613      0.1146
   2452 H          15.5231    3.1615   19.2311 H     613  UNL613      0.1146
   2453 N          15.4625    3.7782   21.4776 N.3   614  UNL614     -0.3437
   2454 H          14.6780    3.1846   21.2118 H     614  UNL614      0.1146
   2455 H          15.0801    4.7162   21.5887 H     614  UNL614      0.1146
   2456 H          15.7402    3.4758   22.4102 H     614  UNL614      0.1146
   2457 N          15.0395    5.9728   -0.2131 N.3   615  UNL615     -0.3437
   2458 H          14.5978    6.1146   -1.1204 H     615  UNL615      0.1146
   2459 H          15.7651    5.2726   -0.3604 H     615  UNL615      0.1146
   2460 H          15.5270    6.8416    0.0008 H     615  UNL615      0.1146
   2461 N          15.0395    6.0229    1.4651 N.3   616  UNL616     -0.3437
   2462 H          14.5978    6.3135    2.3362 H     616  UNL616      0.1146
   2463 H          15.7651    6.7125    1.2744 H     616  UNL616      0.1146
   2464 H          15.5270    5.1528    1.6740 H     616  UNL616      0.1146
   2465 N          15.0435    5.9923    3.5803 N.3   617  UNL617     -0.3437
   2466 H          14.6018    6.4082    4.3991 H     617  UNL617      0.1146
   2467 H          15.7691    6.6463    3.2901 H     617  UNL617      0.1146
   2468 H          15.5310    5.1625    3.9152 H     617  UNL617      0.1146
   2469 N          15.0356    6.1937    5.7390 N.3   618  UNL618     -0.3437
   2470 H          14.5939    5.7663    6.5517 H     618  UNL618      0.1146
   2471 H          15.7612    6.8087    6.1046 H     618  UNL618      0.1146
   2472 H          15.5231    5.4406    5.2557 H     618  UNL618      0.1146
   2473 N          15.2968    5.8920    8.2751 N.3   619  UNL619     -0.3437
   2474 H          15.8418    6.7522    8.2361 H     619  UNL619      0.1146
   2475 H          14.3201    6.1752    8.2093 H     619  UNL619      0.1146
   2476 H          15.5023    5.3900    7.4125 H     619  UNL619      0.1146
   2477 N          15.0474    6.1711   10.3190 N.3   620  UNL620     -0.3437
   2478 H          14.6057    5.5129    9.6786 H     620  UNL620      0.1146
   2479 H          15.7730    5.6460   10.8051 H     620  UNL620      0.1146
   2480 H          15.5349    6.8481    9.7339 H     620  UNL620      0.1146
   2481 N          15.5019    6.0248   12.3597 N.3   621  UNL621     -0.3437
   2482 H          15.4943    6.3154   11.3830 H     621  UNL621      0.1146
   2483 H          14.9449    6.7144   12.8622 H     621  UNL621      0.1146
   2484 H          14.9729    5.1547   12.3979 H     621  UNL621      0.1146
   2485 N          15.0189    5.8506   14.3173 N.3   622  UNL622     -0.3437
   2486 H          14.7225    6.6337   14.8980 H     622  UNL622      0.1146
   2487 H          15.3868    6.2603   13.4598 H     622  UNL622      0.1146
   2488 H          15.8170    5.4335   14.7941 H     622  UNL622      0.1146
   2489 N          15.0474    6.0170   16.2498 N.3   623  UNL623     -0.3437
   2490 H          14.6057    6.3076   17.1209 H     623  UNL623      0.1146
   2491 H          15.7730    6.7066   16.0591 H     623  UNL623      0.1146
   2492 H          15.5349    5.1469   16.4587 H     623  UNL623      0.1146
   2493 N          15.0376    5.8946   18.7516 N.3   624  UNL624     -0.3437
   2494 H          14.5959    6.4186   17.9975 H     624  UNL624      0.1146
   2495 H          15.7632    5.3291   18.3133 H     624  UNL624      0.1146
   2496 H          15.5251    6.5827   19.3237 H     624  UNL624      0.1146
   2497 N          15.2893    6.0379   21.4603 N.3   625  UNL625     -0.3437
   2498 H          14.5061    5.4444   21.7299 H     625  UNL625      0.1146
   2499 H          15.0547    6.9759   21.7822 H     625  UNL625      0.1146
   2500 H          16.0795    5.7356   22.0283 H     625  UNL625      0.1146
   2501 N          15.0415    8.4949   -0.2465 N.3   626  UNL626     -0.3437
   2502 H          14.5998    7.6231   -0.5350 H     626  UNL626      0.1146
   2503 H          15.7671    8.2350    0.4201 H     626  UNL626      0.1146
   2504 H          15.5290    8.8483   -1.0686 H     626  UNL626      0.1146
   2505 N          15.0415    8.4969    1.8662 N.3   627  UNL627     -0.3437
   2506 H          14.5998    7.6251    1.5777 H     627  UNL627      0.1146
   2507 H          15.7671    8.2370    2.5328 H     627  UNL627      0.1146
   2508 H          15.5290    8.8502    1.0441 H     627  UNL627      0.1146
   2509 N          15.0435    8.4949    4.0101 N.3   628  UNL628     -0.3437
   2510 H          14.6018    7.6231    3.7216 H     628  UNL628      0.1146
   2511 H          15.7691    8.2350    4.6767 H     628  UNL628      0.1146
   2512 H          15.5310    8.8483    3.1880 H     628  UNL628      0.1146
   2513 N          15.0454    8.4969    6.1071 N.3   629  UNL629     -0.3437
   2514 H          14.6037    7.6251    5.8186 H     629  UNL629      0.1146
   2515 H          15.7710    8.2370    6.7737 H     629  UNL629      0.1146
   2516 H          15.5329    8.8502    5.2850 H     629  UNL629      0.1146
   2517 N          15.0376    8.4949    8.2354 N.3   630  UNL630     -0.3437
   2518 H          14.5959    7.6231    7.9469 H     630  UNL630      0.1146
   2519 H          15.7632    8.2350    8.9020 H     630  UNL630      0.1146
   2520 H          15.5251    8.8483    7.4133 H     630  UNL630      0.1146
   2521 N          15.0356    8.5047   10.4106 N.3   631  UNL631     -0.3437
   2522 H          14.5939    7.6329   10.1220 H     631  UNL631      0.1146
   2523 H          15.7612    8.2448   11.0772 H     631  UNL631      0.1146
   2524 H          15.5231    8.8581    9.5884 H     631  UNL631      0.1146
   2525 N          15.0376    8.1446   14.5243 N.3   632  UNL632     -0.3437
   2526 H          14.5959    8.6685   13.7702 H     632  UNL632      0.1146
   2527 H          15.7632    7.5791   14.0860 H     632  UNL632      0.1146
   2528 H          15.5251    8.8326   15.0964 H     632  UNL632      0.1146
   2529 N          15.1658    8.2806   16.7597 N.3   633  UNL633     -0.3437
   2530 H          16.1280    8.5712   16.5922 H     633  UNL633      0.1146
   2531 H          14.5788    8.9702   16.2925 H     633  UNL633      0.1146
   2532 H          15.0414    7.4105   16.2441 H     633  UNL633      0.1146
   2533 N          15.0474    8.2728   18.3625 N.3   634  UNL634     -0.3437
   2534 H          14.6057    8.5634   19.2336 H     634  UNL634      0.1146
   2535 H          15.7730    8.9624   18.1718 H     634  UNL634      0.1146
   2536 H          15.5349    7.4027   18.5714 H     634  UNL634      0.1146
   2537 N          15.0888    8.2898   22.0061 N.3   635  UNL635     -0.3437
   2538 H          15.9171    7.6963   22.0041 H     635  UNL635      0.1146
   2539 H          15.4148    9.2278   21.7773 H     635  UNL635      0.1146
   2540 H          14.5246    7.9875   21.2133 H     635  UNL635      0.1146
   2541 N          15.0435   10.5404   -0.6397 N.3   636  UNL636     -0.3437
   2542 H          14.6018   10.8310    0.2314 H     636  UNL636      0.1146
   2543 H          15.7691   11.2300   -0.8305 H     636  UNL636      0.1146
   2544 H          15.5310    9.6703   -0.4308 H     636  UNL636      0.1146
   2545 N          15.2846   10.7024    1.9416 N.3   637  UNL637     -0.3437
   2546 H          14.3401   10.8241    1.5790 H     637  UNL637      0.1146
   2547 H          15.4242    9.6968    2.0296 H     637  UNL637      0.1146
   2548 H          15.9120   11.0091    1.1996 H     637  UNL637      0.1146
   2549 N          15.5019   10.5404    3.9169 N.3   638  UNL638     -0.3437
   2550 H          15.4943   10.8310    2.9402 H     638  UNL638      0.1146
   2551 H          14.9449   11.2300    4.4194 H     638  UNL638      0.1146
   2552 H          14.9729    9.6703    3.9551 H     638  UNL638      0.1146
   2553 N          15.0474   10.7054    5.7468 N.3   639  UNL639     -0.3437
   2554 H          14.6057   10.2779    6.5595 H     639  UNL639      0.1146
   2555 H          15.7730   11.3204    6.1124 H     639  UNL639      0.1146
   2556 H          15.5349    9.9522    5.2635 H     639  UNL639      0.1146
   2557 N          15.0435   10.5404    7.8109 N.3   640  UNL640     -0.3437
   2558 H          14.6018   10.8310    8.6820 H     640  UNL640      0.1146
   2559 H          15.7691   11.2300    7.6202 H     640  UNL640      0.1146
   2560 H          15.5310    9.6703    8.0198 H     640  UNL640      0.1146
   2561 N          15.0435   10.5306    9.9196 N.3   641  UNL641     -0.3437
   2562 H          14.6018   10.8212   10.7907 H     641  UNL641      0.1146
   2563 H          15.7691   11.2202    9.7289 H     641  UNL641      0.1146
   2564 H          15.5310    9.6605   10.1285 H     641  UNL641      0.1146
   2565 N          15.0395   10.7693   12.3235 N.3   642  UNL642     -0.3437
   2566 H          14.5978    9.8570   12.2194 H     642  UNL642      0.1146
   2567 H          15.7651   10.6513   13.0292 H     642  UNL642      0.1146
   2568 H          15.5270   10.9471   11.4465 H     642  UNL642      0.1146
   2569 N          15.5019   10.5286   14.4802 N.3   643  UNL643     -0.3437
   2570 H          15.4943   10.8192   13.5035 H     643  UNL643      0.1146
   2571 H          14.9449   11.2182   14.9827 H     643  UNL643      0.1146
   2572 H          14.9729    9.6585   14.5184 H     643  UNL643      0.1146
   2573 N          15.0415   10.5286   16.2498 N.3   644  UNL644     -0.3437
   2574 H          14.5998   10.8192   17.1209 H     644  UNL644      0.1146
   2575 H          15.7671   11.2182   16.0591 H     644  UNL644      0.1146
   2576 H          15.5290    9.6585   16.4587 H     644  UNL644      0.1146
   2577 N          15.0435   10.6707   18.3975 N.3   645  UNL645     -0.3437
   2578 H          14.6018   10.4186   19.2805 H     645  UNL645      0.1146
   2579 H          15.7691   11.3475   18.6296 H     645  UNL645      0.1146
   2580 H          15.5310    9.8347   18.0785 H     645  UNL645      0.1146
   2581 N          14.9560   10.4246   20.9124 N.3   646  UNL646     -0.3437
   2582 H          15.7842    9.8310   20.9103 H     646  UNL646      0.1146
   2583 H          15.2820   11.3625   20.6836 H     646  UNL646      0.1146
   2584 H          14.3918   10.1222   20.1195 H     646  UNL646      0.1146
   2585 N          15.0474   12.9534   -0.5313 N.3   647  UNL647     -0.3437
   2586 H          14.6057   12.5260    0.2815 H     647  UNL647      0.1146
   2587 H          15.7730   13.5684   -0.1657 H     647  UNL647      0.1146
   2588 H          15.5349   12.2002   -1.0145 H     647  UNL647      0.1146
   2589 N          15.0435   12.9573    1.5814 N.3   648  UNL648     -0.3437
   2590 H          14.6018   12.5299    2.3941 H     648  UNL648      0.1146
   2591 H          15.7691   13.5723    1.9470 H     648  UNL648      0.1146
   2592 H          15.5310   12.2042    1.0981 H     648  UNL648      0.1146
   2593 N          15.0435   13.0066    4.0413 N.3   649  UNL649     -0.3437
   2594 H          14.6018   12.1348    3.7528 H     649  UNL649      0.1146
   2595 H          15.7691   12.7467    4.7079 H     649  UNL649      0.1146
   2596 H          15.5310   13.3599    3.2192 H     649  UNL649      0.1146
   2597 N          13.0728   12.6562    6.2293 N.3   650  UNL650     -0.3437
   2598 H          12.6311   13.1802    5.4752 H     650  UNL650      0.1146
   2599 H          13.7984   12.0907    5.7910 H     650  UNL650      0.1146
   2600 H          13.5603   13.3443    6.8014 H     650  UNL650      0.1146
   2601 N          14.9744   12.7682    8.3030 N.3   651  UNL651     -0.3437
   2602 H          15.4252   11.9114    7.9850 H     651  UNL651      0.1146
   2603 H          15.6459   13.2278    8.9165 H     651  UNL651      0.1146
   2604 H          14.8919   13.3641    7.4805 H     651  UNL651      0.1146
   2605 N          15.0415   12.9405   12.4336 N.3   652  UNL652     -0.3437
   2606 H          14.5998   12.2824   11.7932 H     652  UNL652      0.1146
   2607 H          15.7671   12.4154   12.9197 H     652  UNL652      0.1146
   2608 H          15.5290   13.6175   11.8486 H     652  UNL652      0.1146
   2609 N          15.5019   12.7962   14.4723 N.3   653  UNL653     -0.3437
   2610 H          15.4943   13.0868   13.4957 H     653  UNL653      0.1146
   2611 H          14.9449   13.4858   14.9749 H     653  UNL653      0.1146
   2612 H          14.9729   11.9261   14.5106 H     653  UNL653      0.1146
   2613 N          15.0189   13.0117   16.4646 N.3   654  UNL654     -0.3437
   2614 H          14.7225   12.0829   16.1681 H     654  UNL654      0.1146
   2615 H          15.3868   12.9011   17.4085 H     654  UNL654      0.1146
   2616 H          15.8170   13.2523   15.8786 H     654  UNL654      0.1146
   2617 N          15.4554   13.0077   18.5689 N.3   655  UNL655     -0.3437
   2618 H          14.6234   13.3305   18.0770 H     655  UNL655      0.1146
   2619 H          15.1693   12.8553   19.5349 H     655  UNL655      0.1146
   2620 H          15.6658   12.0856   18.1896 H     655  UNL655      0.1146
   2621 N          13.0320   12.7641   20.4869 N.3   656  UNL656     -0.3437
   2622 H          12.5523   12.9865   21.3580 H     656  UNL656      0.1146
   2623 H          13.6481   13.5532   20.2962 H     656  UNL656      0.1146
   2624 H          13.6425   11.9754   20.6958 H     656  UNL656      0.1146
   2625 N          15.5019   15.0481   -0.3143 N.3   657  UNL657     -0.3437
   2626 H          15.4943   15.3387   -1.2910 H     657  UNL657      0.1146
   2627 H          14.9449   15.7377    0.1882 H     657  UNL657      0.1146
   2628 H          14.9729   14.1780   -0.2761 H     657  UNL657      0.1146
   2629 N          15.0415   15.0710    1.4612 N.3   658  UNL658     -0.3437
   2630 H          14.6475   15.4235    2.3323 H     658  UNL658      0.1146
   2631 H          15.8608   15.6461    1.2705 H     658  UNL658      0.1146
   2632 H          15.3954   14.1385    1.6701 H     658  UNL658      0.1146
   2633 N          15.5019   15.0481    3.9051 N.3   659  UNL659     -0.3437
   2634 H          15.4943   15.3387    2.9285 H     659  UNL659      0.1146
   2635 H          14.9449   15.7377    4.4077 H     659  UNL659      0.1146
   2636 H          14.9729   14.1780    3.9434 H     659  UNL659      0.1146
   2637 N          15.2251   16.2537    5.7317 N.3   660  UNL660     -0.3437
   2638 H          14.4190   16.2038    6.3531 H     660  UNL660      0.1146
   2639 H          16.0438   16.2985    6.3367 H     660  UNL660      0.1146
   2640 H          15.2729   15.3512    5.2608 H     660  UNL660      0.1146
   2641 N          15.2172   16.3474    7.8365 N.3   661  UNL661     -0.3437
   2642 H          14.4112   16.2975    8.4580 H     661  UNL661      0.1146
   2643 H          16.0360   16.3922    8.4415 H     661  UNL661      0.1146
   2644 H          15.2651   15.4450    7.3656 H     661  UNL661      0.1146
   2645 N          15.3016   16.0930   10.4280 N.3   662  UNL662     -0.3437
   2646 H          16.0940   16.3836    9.8570 H     662  UNL662      0.1146
   2647 H          14.5695   16.7826   10.2643 H     662  UNL662      0.1146
   2648 H          14.9645   15.2229   10.0186 H     662  UNL662      0.1146
   2649 N          15.2192   16.3162   12.0638 N.3   663  UNL663     -0.3437
   2650 H          14.4132   16.2663   12.6852 H     663  UNL663      0.1146
   2651 H          16.0380   16.3610   12.6688 H     663  UNL663      0.1146
   2652 H          15.2671   15.4137   11.5929 H     663  UNL663      0.1146
   2653 N          15.2192   16.3474   14.1725 N.3   664  UNL664     -0.3437
   2654 H          14.4132   16.2975   14.7940 H     664  UNL664      0.1146
   2655 H          16.0380   16.3922   14.7775 H     664  UNL664      0.1146
   2656 H          15.2671   15.4450   13.7017 H     664  UNL664      0.1146
   2657 N          15.0470   16.0129   16.6912 N.3   665  UNL665     -0.3437
   2658 H          15.4909   15.1524   16.3738 H     665  UNL665      0.1146
   2659 H          15.8058   16.6387   16.9576 H     665  UNL665      0.1146
   2660 H          14.6171   16.4282   15.8659 H     665  UNL665      0.1146
   2661 N          15.2192   16.3318   18.4037 N.3   666  UNL666     -0.3437
   2662 H          14.4132   16.2819   19.0252 H     666  UNL666      0.1146
   2663 H          16.0380   16.3766   19.0087 H     666  UNL666      0.1146
   2664 H          15.2671   15.4294   17.9328 H     666  UNL666      0.1146
   2665 N          15.0415   15.0461   20.4810 N.3   667  UNL667     -0.3437
   2666 H          14.5998   15.3367   21.3521 H     667  UNL667      0.1146
   2667 H          15.7671   15.7357   20.2903 H     667  UNL667      0.1146
   2668 H          15.5290   14.1760   20.6899 H     667  UNL667      0.1146
   2669 N          17.0727   -0.5283    6.0198 N.3   668  UNL668     -0.3437
   2670 H          16.6310   -1.4001    5.7313 H     668  UNL668      0.1146
   2671 H          17.7983   -0.7883    6.6864 H     668  UNL668      0.1146
   2672 H          17.5602   -0.1750    5.1977 H     668  UNL668      0.1146
   2673 N          17.0324   -0.5630   10.2399 N.3   669  UNL669     -0.3437
   2674 H          17.1601   -0.5027    9.2307 H     669  UNL669      0.1146
   2675 H          16.9373   -1.5551   10.4522 H     669  UNL669      0.1146
   2676 H          17.9170   -0.2710   10.6529 H     669  UNL669      0.1146
   2677 N          17.0353   -0.5311   14.3125 N.3   670  UNL670     -0.3437
   2678 H          17.6637   -0.2083   15.0468 H     670  UNL670      0.1146
   2679 H          17.6184   -0.6835   13.4908 H     670  UNL670      0.1146
   2680 H          16.7136   -1.4532   14.6034 H     670  UNL670      0.1146
   2681 N          17.0610   -0.7387   16.2537 N.3   671  UNL671     -0.3437
   2682 H          16.6193   -0.4481   17.1248 H     671  UNL671      0.1146
   2683 H          17.7866   -0.0491   16.0630 H     671  UNL671      0.1146
   2684 H          17.5485   -1.6088   16.4626 H     671  UNL671      0.1146
   2685 N          15.4441   -0.8532   21.4654 N.3   672  UNL672     -0.3437
   2686 H          15.4756   -1.3809   22.3365 H     672  UNL672      0.1146
   2687 H          14.4573   -0.6845   21.2747 H     672  UNL672      0.1146
   2688 H          15.8494    0.0581   21.6743 H     672  UNL672      0.1146
   2689 N          17.0630    1.7333   -0.3123 N.3   673  UNL673     -0.3437
   2690 H          16.6213    0.8615   -0.6008 H     673  UNL673      0.1146
   2691 H          17.7886    1.4734    0.3543 H     673  UNL673      0.1146
   2692 H          17.5505    2.0867   -1.1344 H     673  UNL673      0.1146
   2693 N          17.0395   -0.5764    1.4977 N.3   674  UNL674     -0.3437
   2694 H          17.0979   -1.2337    2.2742 H     674  UNL674      0.1146
   2695 H          16.9146    0.3437    1.9174 H     674  UNL674      0.1146
   2696 H          17.9635   -0.5661    1.0683 H     674  UNL674      0.1146
   2697 N          17.0341    1.4447    3.6327 N.3   675  UNL675     -0.3437
   2698 H          17.9201    1.4606    3.1295 H     675  UNL675      0.1146
   2699 H          17.1935    0.8775    4.4641 H     675  UNL675      0.1146
   2700 H          16.8834    2.3957    3.9662 H     675  UNL675      0.1146
   2701 N          17.4061    1.5171    5.6687 N.3   676  UNL676     -0.3437
   2702 H          16.4414    1.8077    5.5162 H     676  UNL676      0.1146
   2703 H          17.8107    2.2067    6.3005 H     676  UNL676      0.1146
   2704 H          17.3572    0.6470    6.1968 H     676  UNL676      0.1146
   2705 N          17.0688   -0.3191    8.2103 N.3   677  UNL677     -0.3437
   2706 H          16.6271   -0.9772    7.5698 H     677  UNL677      0.1146
   2707 H          17.7944   -0.8442    8.6963 H     677  UNL677      0.1146
   2708 H          17.5563    0.3580    7.6252 H     677  UNL677      0.1146
   2709 N          17.0610    1.6633   10.3268 N.3   678  UNL678     -0.3437
   2710 H          16.6193    1.0052    9.6864 H     678  UNL678      0.1146
   2711 H          17.7866    1.1383   10.8129 H     678  UNL678      0.1146
   2712 H          17.5485    2.3404    9.7418 H     678  UNL678      0.1146
   2713 N          17.0727    1.7294   12.3637 N.3   679  UNL679     -0.3437
   2714 H          16.6310    0.8576   12.0752 H     679  UNL679      0.1146
   2715 H          17.7983    1.4695   13.0303 H     679  UNL679      0.1146
   2716 H          17.5602    2.0828   11.5416 H     679  UNL679      0.1146
   2717 N          17.0727    1.5171   14.1430 N.3   680  UNL680     -0.3437
   2718 H          16.6310    1.8077   15.0141 H     680  UNL680      0.1146
   2719 H          17.7983    2.2067   13.9523 H     680  UNL680      0.1146
   2720 H          17.5602    0.6470   14.3519 H     680  UNL680      0.1146
   2721 N          17.2982    1.6772   16.7263 N.3   681  UNL681     -0.3437
   2722 H          16.3537    1.7989   16.3637 H     681  UNL681      0.1146
   2723 H          17.4378    0.6716   16.8143 H     681  UNL681      0.1146
   2724 H          17.9257    1.9839   15.9843 H     681  UNL681      0.1146
   2725 N          17.6056    0.3648   18.4322 N.3   682  UNL682     -0.3437
   2726 H          16.9352   -0.3108   18.7959 H     682  UNL682      0.1146
   2727 H          17.0655    1.0232   17.8725 H     682  UNL682      0.1146
   2728 H          17.9404    0.8903   19.2385 H     682  UNL682      0.1146
   2729 N          17.4341    0.4643   20.6877 N.3   683  UNL683     -0.3437
   2730 H          17.0006    0.7549   19.8125 H     683  UNL683      0.1146
   2731 H          17.1526    1.1539   21.3832 H     683  UNL683      0.1146
   2732 H          16.9750   -0.4058   20.9533 H     683  UNL683      0.1146
   2733 N          17.4076    3.5349   -0.2531 N.3   684  UNL684     -0.3437
   2734 H          17.9282    4.1829   -0.8426 H     684  UNL684      0.1146
   2735 H          17.2254    4.0317    0.6177 H     684  UNL684      0.1146
   2736 H          16.5010    3.4133   -0.7020 H     684  UNL684      0.1146
   2737 N          17.0649    3.6131    3.6660 N.3   685  UNL685     -0.3437
   2738 H          16.6232    4.4429    4.0594 H     685  UNL685      0.1146
   2739 H          17.7905    3.9529    3.0364 H     685  UNL685      0.1146
   2740 H          17.5524    3.1615    4.4385 H     685  UNL685      0.1146
   2741 N          17.0649    3.7189    6.1229 N.3   686  UNL686     -0.3437
   2742 H          16.6232    3.8607    5.2156 H     686  UNL686      0.1146
   2743 H          17.7905    3.0187    5.9757 H     686  UNL686      0.1146
   2744 H          17.5524    4.5878    6.3368 H     686  UNL686      0.1146
   2745 N          17.0708    1.9423    8.1403 N.3   687  UNL687     -0.3437
   2746 H          16.6291    1.0705    7.8518 H     687  UNL687      0.1146
   2747 H          17.7964    1.6824    8.8069 H     687  UNL687      0.1146
   2748 H          17.5583    2.2956    7.3182 H     687  UNL687      0.1146
   2749 N          17.0353    3.9805   10.0911 N.3   688  UNL688     -0.3437
   2750 H          17.6637    4.3034   10.8254 H     688  UNL688      0.1146
   2751 H          17.6184    3.8282    9.2694 H     688  UNL688      0.1146
   2752 H          16.7136    3.0584   10.3820 H     688  UNL688      0.1146
   2753 N          17.3104    3.6362   12.4926 N.3   689  UNL689     -0.3437
   2754 H          17.8554    4.4963   12.4536 H     689  UNL689      0.1146
   2755 H          16.3337    3.9194   12.4268 H     689  UNL689      0.1146
   2756 H          17.5159    3.1341   11.6300 H     689  UNL689      0.1146
   2757 N          16.8681    3.8331   14.3909 N.3   690  UNL690     -0.3437
   2758 H          17.4629    4.1917   13.6453 H     690  UNL690      0.1146
   2759 H          17.3956    3.0826   14.8346 H     690  UNL690      0.1146
   2760 H          16.8045    4.5787   15.0827 H     690  UNL690      0.1146
   2761 N          17.0727    3.7729   16.2576 N.3   691  UNL691     -0.3437
   2762 H          16.6310    4.0635   17.1287 H     691  UNL691      0.1146
   2763 H          17.7983    4.4625   16.0669 H     691  UNL691      0.1146
   2764 H          17.5602    2.9028   16.4665 H     691  UNL691      0.1146
   2765 N          17.3099    3.9408   18.8390 N.3   692  UNL692     -0.3437
   2766 H          16.3654    4.0625   18.4763 H     692  UNL692      0.1146
   2767 H          17.4496    2.9352   18.9270 H     692  UNL692      0.1146
   2768 H          17.9374    4.2475   18.0969 H     692  UNL692      0.1146
   2769 N          17.0610    2.0360   20.8085 N.3   693  UNL693     -0.3437
   2770 H          16.6193    1.1642   20.5200 H     693  UNL693      0.1146
   2771 H          17.7866    1.7761   21.4751 H     693  UNL693      0.1146
   2772 H          17.5485    2.3894   19.9864 H     693  UNL693      0.1146
   2773 N          17.1300    5.8920   -0.6358 N.3   694  UNL694     -0.3437
   2774 H          16.6268    6.7522   -0.4228 H     694  UNL694      0.1146
   2775 H          18.0755    6.1752   -0.8892 H     694  UNL694      0.1146
   2776 H          17.2143    5.3900    0.2469 H     694  UNL694      0.1146
   2777 N          17.0688    5.9884    1.4716 N.3   695  UNL695     -0.3437
   2778 H          16.6271    6.4043    2.2903 H     695  UNL695      0.1146
   2779 H          17.7944    6.6424    1.1813 H     695  UNL695      0.1146
   2780 H          17.5563    5.1586    1.8065 H     695  UNL695      0.1146
   2781 N          17.0649    5.9747    4.0102 N.3   696  UNL696     -0.3437
   2782 H          16.6232    6.1165    3.1029 H     696  UNL696      0.1146
   2783 H          17.7905    5.2745    3.8630 H     696  UNL696      0.1146
   2784 H          17.5524    6.8436    4.2241 H     696  UNL696      0.1146
   2785 N          17.0669    6.1898    5.7429 N.3   697  UNL697     -0.3437
   2786 H          16.6252    5.7624    6.5556 H     697  UNL697      0.1146
   2787 H          17.7925    6.8048    6.1085 H     697  UNL697      0.1146
   2788 H          17.5544    5.4367    5.2596 H     697  UNL697      0.1146
   2789 N          17.0688    4.0697    7.8109 N.3   698  UNL698     -0.3437
   2790 H          16.6271    4.3603    8.6820 H     698  UNL698      0.1146
   2791 H          17.7944    4.7593    7.6202 H     698  UNL698      0.1146
   2792 H          17.5563    3.1996    8.0198 H     698  UNL698      0.1146
   2793 N          17.0443    5.8545   10.0919 N.3   699  UNL699     -0.3437
   2794 H          16.7479    6.6376   10.6727 H     699  UNL699      0.1146
   2795 H          17.4121    6.2642    9.2345 H     699  UNL699      0.1146
   2796 H          17.8424    5.4374   10.5688 H     699  UNL699      0.1146
   2797 N          17.0392    6.2363   12.2038 N.3   700  UNL700     -0.3437
   2798 H          17.6676    6.5592   12.9381 H     700  UNL700      0.1146
   2799 H          17.6223    6.0840   11.3820 H     700  UNL700      0.1146
   2800 H          16.7175    5.3142   12.4947 H     700  UNL700      0.1146
   2801 N          17.0610    6.0268   14.1450 N.3   701  UNL701     -0.3437
   2802 H          16.6193    6.3174   15.0161 H     701  UNL701      0.1146
   2803 H          17.7866    6.7164   13.9543 H     701  UNL701      0.1146
   2804 H          17.5485    5.1567   14.3539 H     701  UNL701      0.1146
   2805 N          17.3060    6.2078   16.2305 N.3   702  UNL702     -0.3437
   2806 H          16.3615    5.8308   16.2951 H     702  UNL702      0.1146
   2807 H          17.4456    6.7618   17.0743 H     702  UNL702      0.1146
   2808 H          17.9335    5.4090   16.3120 H     702  UNL702      0.1146
   2809 N          17.1599    5.8643   18.3719 N.3   703  UNL703     -0.3437
   2810 H          17.9861    5.5022   18.8458 H     703  UNL703      0.1146
   2811 H          16.4664    6.0263   19.1008 H     703  UNL703      0.1146
   2812 H          17.4186    6.7853   18.0207 H     703  UNL703      0.1146
   2813 N          17.0649    3.9571   20.9115 N.3   704  UNL704     -0.3437
   2814 H          16.6232    4.0989   20.0042 H     704  UNL704      0.1146
   2815 H          17.7905    3.2570   20.7643 H     704  UNL704      0.1146
   2816 H          17.5524    4.8260   21.1254 H     704  UNL704      0.1146
   2817 N          17.0669    8.4988   -0.1996 N.3   705  UNL705     -0.3437
   2818 H          16.6252    7.6270   -0.4881 H     705  UNL705      0.1146
   2819 H          17.7925    8.2389    0.4670 H     705  UNL705      0.1146
   2820 H          17.5544    8.8522   -1.0217 H     705  UNL705      0.1146
   2821 N          17.0630    8.5008    1.9130 N.3   706  UNL706     -0.3437
   2822 H          16.6213    7.6290    1.6245 H     706  UNL706      0.1146
   2823 H          17.7886    8.2409    2.5796 H     706  UNL706      0.1146
   2824 H          17.5505    8.8542    1.0909 H     706  UNL706      0.1146
   2825 N          17.0669    8.5008    4.0569 N.3   707  UNL707     -0.3437
   2826 H          16.6252    7.6290    3.7684 H     707  UNL707      0.1146
   2827 H          17.7925    8.2409    4.7235 H     707  UNL707      0.1146
   2828 H          17.5544    8.8542    3.2348 H     707  UNL707      0.1146
   2829 N          17.0610    8.5067    6.1852 N.3   708  UNL708     -0.3437
   2830 H          16.6193    7.6349    5.8967 H     708  UNL708      0.1146
   2831 H          17.7866    8.2467    6.8518 H     708  UNL708      0.1146
   2832 H          17.5485    8.8600    5.3631 H     708  UNL708      0.1146
   2833 N          17.0314    8.1159   10.1333 N.3   709  UNL709     -0.3437
   2834 H          17.6598    8.0477    9.3340 H     709  UNL709      0.1146
   2835 H          17.6145    7.9945   10.9602 H     709  UNL709      0.1146
   2836 H          16.7097    9.0825   10.1560 H     709  UNL709      0.1146
   2837 N          17.1672    8.5000   12.4696 N.3   710  UNL710     -0.3437
   2838 H          17.9946    8.8228   11.9700 H     710  UNL710      0.1146
   2839 H          16.4521    8.3476   11.7599 H     710  UNL710      0.1146
   2840 H          17.4015    7.5779   12.8346 H     710  UNL710      0.1146
   2841 N          17.4100    8.5558   14.3819 N.3   711  UNL711     -0.3437
   2842 H          17.7420    7.8785   15.0670 H     711  UNL711      0.1146
   2843 H          17.4813    8.0963   13.4752 H     711  UNL711      0.1146
   2844 H          16.4134    8.6708   14.5607 H     711  UNL711      0.1146
   2845 N          17.2676    8.5681   16.5967 N.3   712  UNL712     -0.3437
   2846 H          16.6461    7.9330   17.0954 H     712  UNL712      0.1146
   2847 H          18.1737    8.1034   16.5601 H     712  UNL712      0.1146
   2848 H          16.9279    8.5970   15.6364 H     712  UNL712      0.1146
   2849 N          17.0314    8.4961   18.5456 N.3   713  UNL713     -0.3437
   2850 H          17.6598    8.8189   19.2800 H     713  UNL713      0.1146
   2851 H          17.6145    8.3437   17.7239 H     713  UNL713      0.1146
   2852 H          16.7097    7.5740   18.8366 H     713  UNL713      0.1146
   2853 N          16.9764    6.4020   20.7252 N.3   714  UNL714     -0.3437
   2854 H          17.0870    5.4614   20.3493 H     714  UNL714      0.1146
   2855 H          17.4705    6.4083   21.6164 H     714  UNL714      0.1146
   2856 H          17.5050    7.0156   20.1068 H     714  UNL714      0.1146
   2857 N          17.0688   10.6866   -0.2443 N.3   715  UNL715     -0.3437
   2858 H          16.6271   10.0285   -0.8847 H     715  UNL715      0.1146
   2859 H          17.7944   10.1615    0.2418 H     715  UNL715      0.1146
   2860 H          17.5563   11.3637   -0.8294 H     715  UNL715      0.1146
   2861 N          17.0649   10.4785    1.8976 N.3   716  UNL716     -0.3437
   2862 H          16.6232   10.6203    0.9903 H     716  UNL716      0.1146
   2863 H          17.7905    9.7784    1.7504 H     716  UNL716      0.1146
   2864 H          17.5524   11.3474    2.1115 H     716  UNL716      0.1146
   2865 N          17.0727   10.7014    3.6263 N.3   717  UNL717     -0.3437
   2866 H          16.6310   10.2740    4.4391 H     717  UNL717      0.1146
   2867 H          17.7983   11.3165    3.9919 H     717  UNL717      0.1146
   2868 H          17.5602    9.9483    3.1431 H     717  UNL717      0.1146
   2869 N          17.0688   10.7054    5.7390 N.3   718  UNL718     -0.3437
   2870 H          16.6271   10.2779    6.5517 H     718  UNL718      0.1146
   2871 H          17.7944   11.3204    6.1046 H     718  UNL718      0.1146
   2872 H          17.5563    9.9522    5.2557 H     718  UNL718      0.1146
   2873 N          16.9981   10.4838    7.9103 N.3   719  UNL719     -0.3437
   2874 H          16.9750   11.4022    8.3511 H     719  UNL719      0.1146
   2875 H          17.7506   10.5204    7.2241 H     719  UNL719      0.1146
   2876 H          17.3073    9.8338    8.6316 H     719  UNL719      0.1146
   2877 N          17.5312   10.5404   10.2548 N.3   720  UNL720     -0.3437
   2878 H          17.5236   10.8310    9.2782 H     720  UNL720      0.1146
   2879 H          16.9741   11.2300   10.7574 H     720  UNL720      0.1146
   2880 H          17.0022    9.6703   10.2931 H     720  UNL720      0.1146
   2881 N          17.0688   10.7014   12.0789 N.3   721  UNL721     -0.3437
   2882 H          16.6271   10.2740   12.8917 H     721  UNL721      0.1146
   2883 H          17.7944   11.3165   12.4445 H     721  UNL721      0.1146
   2884 H          17.5563    9.9483   11.5956 H     721  UNL721      0.1146
   2885 N          17.0727   10.6975   14.1896 N.3   722  UNL722     -0.3437
   2886 H          16.6310   10.2701   15.0024 H     722  UNL722      0.1146
   2887 H          17.7983   11.3126   14.5552 H     722  UNL722      0.1146
   2888 H          17.5602    9.9444   13.7064 H     722  UNL722      0.1146
   2889 N          17.0688   10.7547   16.5870 N.3   723  UNL723     -0.3437
   2890 H          16.6271    9.8829   16.2985 H     723  UNL723      0.1146
   2891 H          17.7944   10.4947   17.2536 H     723  UNL723      0.1146
   2892 H          17.5563   11.1080   15.7649 H     723  UNL723      0.1146
   2893 N          17.0727   10.7014   18.4149 N.3   724  UNL724     -0.3437
   2894 H          16.6310   10.2740   19.2277 H     724  UNL724      0.1146
   2895 H          17.7983   11.3165   18.7805 H     724  UNL724      0.1146
   2896 H          17.5602    9.9483   17.9317 H     724  UNL724      0.1146
   2897 N          17.2963    8.8078   20.7330 N.3   725  UNL725     -0.3437
   2898 H          16.3865    8.5446   20.3571 H     725  UNL725      0.1146
   2899 H          17.3834    8.3214   21.6242 H     725  UNL725      0.1146
   2900 H          17.9882    8.3868   20.1146 H     725  UNL725      0.1146
   2901 N          17.0688   13.0183   -0.2152 N.3   726  UNL726     -0.3437
   2902 H          16.6271   12.1465   -0.5038 H     726  UNL726      0.1146
   2903 H          17.7944   12.7584    0.4514 H     726  UNL726      0.1146
   2904 H          17.5563   13.3717   -1.0374 H     726  UNL726      0.1146
   2905 N          17.0649   12.9534    1.6439 N.3   727  UNL727     -0.3437
   2906 H          16.6232   12.5260    2.4566 H     727  UNL727      0.1146
   2907 H          17.7905   13.5684    2.0095 H     727  UNL727      0.1146
   2908 H          17.5524   12.2002    1.1606 H     727  UNL727      0.1146
   2909 N          17.0727   13.0144    3.9788 N.3   728  UNL728     -0.3437
   2910 H          16.6310   12.1426    3.6903 H     728  UNL728      0.1146
   2911 H          17.7983   12.7545    4.6454 H     728  UNL728      0.1146
   2912 H          17.5602   13.3677    3.1567 H     728  UNL728      0.1146
   2913 N          17.0610   12.9534    5.9005 N.3   729  UNL729     -0.3437
   2914 H          16.6193   12.5260    6.7132 H     729  UNL729      0.1146
   2915 H          17.7866   13.5684    6.2661 H     729  UNL729      0.1146
   2916 H          17.5485   12.2002    5.4172 H     729  UNL729      0.1146
   2917 N          17.0649   12.7923    9.9157 N.3   730  UNL730     -0.3437
   2918 H          16.6232   13.0829   10.7868 H     730  UNL730      0.1146
   2919 H          17.7905   13.4819    9.7250 H     730  UNL730      0.1146
   2920 H          17.5524   11.9222   10.1246 H     730  UNL730      0.1146
   2921 N          17.4797   12.6181   12.2239 N.3   731  UNL731     -0.3437
   2922 H          17.5724   13.4012   11.5785 H     731  UNL731      0.1146
   2923 H          17.4087   13.0277   13.1543 H     731  UNL731      0.1146
   2924 H          16.5703   12.2010   12.0306 H     731  UNL731      0.1146
   2925 N          17.1816   13.2076   14.3519 N.3   732  UNL732     -0.3437
   2926 H          18.0146   12.8080   14.7817 H     732  UNL732      0.1146
   2927 H          16.8303   12.4996   13.7087 H     732  UNL732      0.1146
   2928 H          16.4888   13.2797   15.0956 H     732  UNL732      0.1146
   2929 N          17.1899   12.7923   16.2537 N.3   733  UNL733     -0.3437
   2930 H          16.7482   13.0829   17.1248 H     733  UNL733      0.1146
   2931 H          17.9155   13.4819   16.0630 H     733  UNL733      0.1146
   2932 H          17.6774   11.9222   16.4626 H     733  UNL733      0.1146
   2933 N          17.0688   12.6403   18.4625 N.3   734  UNL734     -0.3437
   2934 H          16.6271   13.4701   18.8558 H     734  UNL734      0.1146
   2935 H          17.7944   12.9801   17.8328 H     734  UNL734      0.1146
   2936 H          17.5563   12.1887   19.2350 H     734  UNL734      0.1146
   2937 N          16.0981   10.8059   21.5279 N.3   735  UNL735     -0.3437
   2938 H          15.6564   11.0965   22.3990 H     735  UNL735      0.1146
   2939 H          16.8237   11.4955   21.3372 H     735  UNL735      0.1146
   2940 H          16.5856    9.9358   21.7368 H     735  UNL735      0.1146
   2941 N          17.4676   15.9066   -0.3215 N.3   736  UNL736     -0.3437
   2942 H          16.8759   16.2717    0.4235 H     736  UNL736      0.1146
   2943 H          16.8382   15.4585   -0.9860 H     736  UNL736      0.1146
   2944 H          17.8494   16.7204   -0.8013 H     736  UNL736      0.1146
   2945 N          17.2446   16.3162    1.4985 N.3   737  UNL737     -0.3437
   2946 H          16.4385   16.2663    2.1200 H     737  UNL737      0.1146
   2947 H          18.0633   16.3610    2.1035 H     737  UNL737      0.1146
   2948 H          17.2924   15.4137    1.0277 H     737  UNL737      0.1146
   2949 N          17.3488   16.2019    4.0745 N.3   738  UNL738     -0.3437
   2950 H          17.5707   15.2297    3.8648 H     738  UNL738      0.1146
   2951 H          17.7840   16.7547    3.3373 H     738  UNL738      0.1146
   2952 H          16.3432   16.2959    3.9394 H     738  UNL738      0.1146
   2953 N          17.0591   15.0729    5.6924 N.3   739  UNL739     -0.3437
   2954 H          16.6650   15.4254    6.5635 H     739  UNL739      0.1146
   2955 H          17.8784   15.6480    5.5017 H     739  UNL739      0.1146
   2956 H          17.4130   14.1405    5.9013 H     739  UNL739      0.1146
   2957 N          17.5331   15.0442    8.1344 N.3   740  UNL740     -0.3437
   2958 H          17.5255   15.3348    7.1577 H     740  UNL740      0.1146
   2959 H          16.9761   15.7338    8.6369 H     740  UNL740      0.1146
   2960 H          17.0041   14.1741    8.1726 H     740  UNL740      0.1146
   2961 N          17.4417   15.0115    9.9157 N.3   741  UNL741     -0.3437
   2962 H          17.7007   14.5506   10.7868 H     741  UNL741      0.1146
   2963 H          16.4805   14.7321    9.7250 H     741  UNL741      0.1146
   2964 H          17.4081   16.0083   10.1246 H     741  UNL741      0.1146
   2965 N          17.0669   15.0520   12.0362 N.3   742  UNL742     -0.3437
   2966 H          16.6252   15.3426   12.9073 H     742  UNL742      0.1146
   2967 H          17.7925   15.7416   11.8455 H     742  UNL742      0.1146
   2968 H          17.5544   14.1819   12.2451 H     742  UNL742      0.1146
   2969 N          17.0669   15.0500   14.1391 N.3   743  UNL743     -0.3437
   2970 H          16.6252   15.3406   15.0102 H     743  UNL743      0.1146
   2971 H          17.7925   15.7396   13.9484 H     743  UNL743      0.1146
   2972 H          17.5544   14.1799   14.3480 H     743  UNL743      0.1146
   2973 N          17.4417   15.0115   16.2576 N.3   744  UNL744     -0.3437
   2974 H          17.7007   14.5506   17.1287 H     744  UNL744      0.1146
   2975 H          16.4805   14.7321   16.0669 H     744  UNL744      0.1146
   2976 H          17.4081   16.0083   16.4665 H     744  UNL744      0.1146
   2977 N          17.0669   15.0461   18.3683 N.3   745  UNL745     -0.3437
   2978 H          16.6252   15.3367   19.2394 H     745  UNL745      0.1146
   2979 H          17.7925   15.7357   18.1776 H     745  UNL745      0.1146
   2980 H          17.5544   14.1760   18.5772 H     745  UNL745      0.1146
   2981 N          17.0669   15.0461   20.4810 N.3   746  UNL746     -0.3437
   2982 H          16.6252   15.3367   21.3521 H     746  UNL746      0.1146
   2983 H          17.7925   15.7357   20.2903 H     746  UNL746      0.1146
   2984 H          17.5544   14.1760   20.6899 H     746  UNL746      0.1146
   2985 N          19.1593   -0.8793    1.4768 N.3   747  UNL747     -0.3437
   2986 H          18.6561   -0.0192    1.6899 H     747  UNL747      0.1146
   2987 H          20.1048   -0.5962    1.2234 H     747  UNL747      0.1146
   2988 H          19.2436   -1.3814    2.3595 H     747  UNL747      0.1146
   2989 N          19.0538   -0.8832    3.8955 N.3   748  UNL748     -0.3437
   2990 H          19.1816   -0.0231    4.4267 H     748  UNL748      0.1146
   2991 H          18.9587   -0.6001    2.9212 H     748  UNL748      0.1146
   2992 H          19.9384   -1.3853    3.9569 H     748  UNL748      0.1146
   2993 N          19.0942   -0.5244    6.0276 N.3   749  UNL749     -0.3437
   2994 H          18.6525   -1.3962    5.7391 H     749  UNL749      0.1146
   2995 H          19.8198   -0.7844    6.6943 H     749  UNL749      0.1146
   2996 H          19.5817   -0.1711    5.2055 H     749  UNL749      0.1146
   2997 N          18.9931   -0.7387   10.1272 N.3   750  UNL750     -0.3437
   2998 H          19.3159   -0.4481   11.0490 H     750  UNL750      0.1146
   2999 H          19.3578   -0.0491    9.4716 H     750  UNL750      0.1146
   3000 H          19.4813   -1.6088    9.9201 H     750  UNL750      0.1146
   3001 N          19.0981   -0.5140   14.2708 N.3   751  UNL751     -0.3437
   3002 H          18.6564   -1.2536   14.8151 H     751  UNL751      0.1146
   3003 H          19.8237   -0.1205   14.8684 H     751  UNL751      0.1146
   3004 H          19.5856   -0.9803   13.5071 H     751  UNL751      0.1146
   3005 N          19.2456   -0.7505   16.1798 N.3   752  UNL752     -0.3437
   3006 H          18.3891   -0.4599   16.6492 H     752  UNL752      0.1146
   3007 H          19.9521   -0.0609   16.4321 H     752  UNL752      0.1146
   3008 H          19.5300   -1.6206   16.6275 H     752  UNL752      0.1146
   3009 N          19.0883   -0.5796   18.4208 N.3   753  UNL753     -0.3437
   3010 H          18.6466   -1.0070   19.2335 H     753  UNL753      0.1146
   3011 H          19.8139    0.0354   18.7864 H     753  UNL753      0.1146
   3012 H          19.5758   -1.3327   17.9375 H     753  UNL753      0.1146
   3013 N          18.3046   -1.0053   21.6906 N.3   754  UNL754     -0.3437
   3014 H          17.4422   -0.5923   22.0428 H     754  UNL754      0.1146
   3015 H          18.5652   -0.4565   20.8724 H     754  UNL754      0.1146
   3016 H          19.0157   -0.8142   22.3950 H     754  UNL754      0.1146
   3017 N          19.0942    1.7314   -0.3142 N.3   755  UNL755     -0.3437
   3018 H          18.6525    0.8596   -0.6027 H     755  UNL755      0.1146
   3019 H          19.8198    1.4715    0.3524 H     755  UNL755      0.1146
   3020 H          19.5817    2.0847   -1.1363 H     755  UNL755      0.1146
   3021 N          19.0903    1.4631    1.8976 N.3   756  UNL756     -0.3437
   3022 H          18.6486    1.6049    0.9903 H     756  UNL756      0.1146
   3023 H          19.8159    0.7629    1.7504 H     756  UNL756      0.1146
   3024 H          19.5778    2.3320    2.1115 H     756  UNL756      0.1146
   3025 N          19.0942    1.6782    3.6263 N.3   757  UNL757     -0.3437
   3026 H          18.6525    1.2508    4.4391 H     757  UNL757      0.1146
   3027 H          19.8198    2.2932    3.9919 H     757  UNL757      0.1146
   3028 H          19.5817    0.9251    3.1431 H     757  UNL757      0.1146
   3029 N          19.0981    1.3507    6.0315 N.3   758  UNL758     -0.3437
   3030 H          18.6564    2.0179    5.4005 H     758  UNL758      0.1146
   3031 H          19.8237    0.8869    5.4868 H     758  UNL758      0.1146
   3032 H          19.5856    1.9073    6.7322 H     758  UNL758      0.1146
   3033 N          19.2930    1.7884   10.2822 N.3   759  UNL759     -0.3437
   3034 H          18.6715    1.1110   10.7219 H     759  UNL759      0.1146
   3035 H          20.1991    1.3288   10.2041 H     759  UNL759      0.1146
   3036 H          18.9533    1.9034    9.3284 H     759  UNL759      0.1146
   3037 N          19.4654    1.3804   12.0902 N.3   760  UNL760     -0.3437
   3038 H          19.1728    2.2405   11.6288 H     760  UNL760      0.1146
   3039 H          19.8703    1.6635   12.9815 H     760  UNL760      0.1146
   3040 H          18.6084    0.8783   12.3180 H     760  UNL760      0.1146
   3041 N          19.0646    1.7286   14.3203 N.3   761  UNL761     -0.3437
   3042 H          19.6930    2.0514   15.0546 H     761  UNL761      0.1146
   3043 H          19.6476    1.5762   13.4986 H     761  UNL761      0.1146
   3044 H          18.7429    0.8065   14.6112 H     761  UNL761      0.1146
   3045 N          19.3047    1.3468   16.2553 N.3   762  UNL762     -0.3437
   3046 H          18.6832    2.1299   16.0581 H     762  UNL762      0.1146
   3047 H          20.2108    1.7564   16.4778 H     762  UNL762      0.1146
   3048 H          18.9650    0.9297   17.1208 H     762  UNL762      0.1146
   3049 N          19.1034    1.6616   18.7955 N.3   763  UNL763     -0.3437
   3050 H          18.9026    0.6759   18.6327 H     763  UNL763      0.1146
   3051 H          20.0877    1.7085   19.0554 H     763  UNL763      0.1146
   3052 H          19.0309    2.1168   17.8868 H     763  UNL763      0.1146
   3053 N          19.3478    1.5263   21.4291 N.3   764  UNL764     -0.3437
   3054 H          18.5647    0.9327   21.6987 H     764  UNL764      0.1146
   3055 H          19.1132    2.4642   21.7510 H     764  UNL764      0.1146
   3056 H          20.1380    1.2239   21.9971 H     764  UNL764      0.1146
   3057 N          19.0922    3.9191    1.8723 N.3   765  UNL765     -0.3437
   3058 H          18.6505    3.2610    1.2319 H     765  UNL765      0.1146
   3059 H          19.8178    3.3941    2.3583 H     765  UNL765      0.1146
   3060 H          19.5797    4.5962    1.2872 H     765  UNL765      0.1146
   3061 N          19.0981    3.9911    3.9072 N.3   766  UNL766     -0.3437
   3062 H          18.6564    3.1193    3.6187 H     766  UNL766      0.1146
   3063 H          19.8237    3.7312    4.5738 H     766  UNL766      0.1146
   3064 H          19.5856    4.3445    3.0851 H     766  UNL766      0.1146
   3065 N          19.0903    3.9340    5.7468 N.3   767  UNL767     -0.3437
   3066 H          18.6486    3.5066    6.5595 H     767  UNL767      0.1146
   3067 H          19.8159    4.5490    6.1124 H     767  UNL767      0.1146
   3068 H          19.5778    3.1809    5.2635 H     767  UNL767      0.1146
   3069 N          19.0981    1.9423    8.1325 N.3   768  UNL768     -0.3437
   3070 H          18.6564    1.0705    7.8440 H     768  UNL768      0.1146
   3071 H          19.8237    1.6824    8.7991 H     768  UNL768      0.1146
   3072 H          19.5856    2.2956    7.3104 H     768  UNL768      0.1146
   3073 N          19.5526    3.7729   10.2451 N.3   769  UNL769     -0.3437
   3074 H          19.5450    4.0635    9.2684 H     769  UNL769      0.1146
   3075 H          18.9956    4.4625   10.7476 H     769  UNL769      0.1146
   3076 H          19.0236    2.9028   10.2833 H     769  UNL769      0.1146
   3077 N          19.0981    3.7670   12.0343 N.3   770  UNL770     -0.3437
   3078 H          18.6564    4.0576   12.9054 H     770  UNL770      0.1146
   3079 H          19.8237    4.4566   11.8436 H     770  UNL770      0.1146
   3080 H          19.5856    2.8969   12.2432 H     770  UNL770      0.1146
   3081 N          19.3314    3.5655   14.5512 N.3   771  UNL771     -0.3437
   3082 H          18.3869    3.9432   14.6119 H     771  UNL771      0.1146
   3083 H          19.4710    3.3140   13.5737 H     771  UNL771      0.1146
   3084 H          19.9588    4.3477   14.7323 H     771  UNL771      0.1146
   3085 N          19.5054    3.7821   16.2815 N.3   772  UNL772     -0.3437
   3086 H          18.7210    3.1885   16.0158 H     772  UNL772      0.1146
   3087 H          19.1230    4.7201   16.3927 H     772  UNL772      0.1146
   3088 H          19.7831    3.4797   17.2142 H     772  UNL772      0.1146
   3089 N          19.3008    3.6026   18.3699 N.3   773  UNL773     -0.3437
   3090 H          18.6793    4.3857   18.1727 H     773  UNL773      0.1146
   3091 H          20.2069    4.0123   18.5924 H     773  UNL773      0.1146
   3092 H          18.9611    3.1855   19.2354 H     773  UNL773      0.1146
   3093 N          19.2274    4.0638   21.6153 N.3   774  UNL774     -0.3437
   3094 H          18.6644    3.8307   22.4321 H     774  UNL774      0.1146
   3095 H          20.1984    3.9421   21.8995 H     774  UNL774      0.1146
   3096 H          19.0421    3.3338   20.9289 H     774  UNL774      0.1146
   3097 N          19.0942    6.0248   -0.6437 N.3   775  UNL775     -0.3437
   3098 H          18.6525    6.3154    0.2274 H     775  UNL775      0.1146
   3099 H          19.8198    6.7144   -0.8344 H     775  UNL775      0.1146
   3100 H          19.5817    5.1547   -0.4348 H     775  UNL775      0.1146
   3101 N          19.0646    6.2402    1.6385 N.3   776  UNL776     -0.3437
   3102 H          19.6930    6.5631    2.3728 H     776  UNL776      0.1146
   3103 H          19.6476    6.0879    0.8168 H     776  UNL776      0.1146
   3104 H          18.7429    5.3181    1.9294 H     776  UNL776      0.1146
   3105 N          19.3475    5.8881    4.0458 N.3   777  UNL777     -0.3437
   3106 H          19.8925    6.7483    4.0068 H     777  UNL777      0.1146
   3107 H          18.3708    6.1713    3.9801 H     777  UNL777      0.1146
   3108 H          19.5530    5.3861    3.1832 H     777  UNL777      0.1146
   3109 N          19.0922    6.2489    6.0257 N.3   778  UNL778     -0.3437
   3110 H          18.6505    5.3771    5.7372 H     778  UNL778      0.1146
   3111 H          19.8178    5.9890    6.6923 H     778  UNL778      0.1146
   3112 H          19.5797    6.6022    5.2036 H     778  UNL778      0.1146
   3113 N          19.0903    4.0385    7.8050 N.3   779  UNL779     -0.3437
   3114 H          18.6486    4.3291    8.6761 H     779  UNL779      0.1146
   3115 H          19.8159    4.7281    7.6143 H     779  UNL779      0.1146
   3116 H          19.5778    3.1684    8.0139 H     779  UNL779      0.1146
   3117 N          19.0903    6.1711   10.1979 N.3   780  UNL780     -0.3437
   3118 H          18.6486    5.5129    9.5575 H     780  UNL780      0.1146
   3119 H          19.8159    5.6460   10.6840 H     780  UNL780      0.1146
   3120 H          19.5778    6.8481    9.6128 H     780  UNL780      0.1146
   3121 N          19.0942    6.2391   12.3578 N.3   781  UNL781     -0.3437
   3122 H          18.6525    5.3673   12.0693 H     781  UNL781      0.1146
   3123 H          19.8198    5.9792   13.0244 H     781  UNL781      0.1146
   3124 H          19.5817    6.5925   11.5357 H     781  UNL781      0.1146
   3125 N          19.2161    6.0888   14.0828 N.3   782  UNL782     -0.3437
   3126 H          19.4754    5.1235   14.2809 H     782  UNL782      0.1146
   3127 H          18.4417    6.3057   14.7086 H     782  UNL782      0.1146
   3128 H          19.9993    6.6601   14.3968 H     782  UNL782      0.1146
   3129 N          19.4314    6.3000   16.4867 N.3   783  UNL783     -0.3437
   3130 H          19.7634    5.6227   17.1718 H     783  UNL783      0.1146
   3131 H          19.5028    5.8404   15.5800 H     783  UNL783      0.1146
   3132 H          18.4349    6.4150   16.6656 H     783  UNL783      0.1146
   3133 N          19.0903    6.0209   18.3683 N.3   784  UNL784     -0.3437
   3134 H          18.6486    6.3115   19.2394 H     784  UNL784      0.1146
   3135 H          19.8159    6.7105   18.1776 H     784  UNL784      0.1146
   3136 H          19.5778    5.1508   18.5772 H     784  UNL784      0.1146
   3137 N          19.1395    6.0379   21.9436 N.3   785  UNL785     -0.3437
   3138 H          19.9678    5.4444   21.9416 H     785  UNL785      0.1146
   3139 H          19.4655    6.9759   21.7148 H     785  UNL785      0.1146
   3140 H          18.5753    5.7356   21.1508 H     785  UNL785      0.1146
   3141 N          19.0903    8.4969   -0.2309 N.3   786  UNL786     -0.3437
   3142 H          18.6486    7.6251   -0.5194 H     786  UNL786      0.1146
   3143 H          19.8159    8.2370    0.4357 H     786  UNL786      0.1146
   3144 H          19.5778    8.8502   -1.0530 H     786  UNL786      0.1146
   3145 N          19.0903    8.0823    1.7599 N.3   787  UNL787     -0.3437
   3146 H          18.6486    9.0005    1.7512 H     787  UNL787      0.1146
   3147 H          19.8159    8.1128    1.0451 H     787  UNL787      0.1146
   3148 H          19.5778    8.0136    2.6521 H     787  UNL787      0.1146
   3149 N          19.0903    8.5027    4.0726 N.3   788  UNL788     -0.3437
   3150 H          18.6486    7.6309    3.7841 H     788  UNL788      0.1146
   3151 H          19.8159    8.2428    4.7392 H     788  UNL788      0.1146
   3152 H          19.5778    8.8561    3.2505 H     788  UNL788      0.1146
   3153 N          19.0903    6.4171    8.2064 N.3   789  UNL789     -0.3437
   3154 H          18.6486    5.7590    7.5659 H     789  UNL789      0.1146
   3155 H          19.8159    5.8921    8.6924 H     789  UNL789      0.1146
   3156 H          19.5778    7.0942    7.6213 H     789  UNL789      0.1146
   3157 N          19.2501    8.0335   10.0423 N.3   790  UNL790     -0.3437
   3158 H          19.8582    8.0721   10.8590 H     790  UNL790      0.1146
   3159 H          18.3706    8.4625   10.3264 H     790  UNL790      0.1146
   3160 H          19.6614    8.6644    9.3558 H     790  UNL790      0.1146
   3161 N          19.0981    8.1387   12.4019 N.3   791  UNL791     -0.3437
   3162 H          18.6564    8.6627   11.6478 H     791  UNL791      0.1146
   3163 H          19.8237    7.5732   11.9636 H     791  UNL791      0.1146
   3164 H          19.5856    8.8268   12.9740 H     791  UNL791      0.1146
   3165 N          19.5621    8.2806   14.2863 N.3   792  UNL792     -0.3437
   3166 H          18.9588    8.5712   13.5182 H     792  UNL792      0.1146
   3167 H          19.4289    8.9702   15.0246 H     792  UNL792      0.1146
   3168 H          19.1671    7.4105   14.6401 H     792  UNL792      0.1146
   3169 N          19.0981    8.2845   16.2537 N.3   793  UNL793     -0.3437
   3170 H          18.6564    8.5751   17.1248 H     793  UNL793      0.1146
   3171 H          19.8237    8.9741   16.0630 H     793  UNL793      0.1146
   3172 H          19.5856    7.4144   16.4626 H     793  UNL793      0.1146
   3173 N          19.0903    8.1287   18.4586 N.3   794  UNL794     -0.3437
   3174 H          18.6486    8.9584   18.8519 H     794  UNL794      0.1146
   3175 H          19.8159    8.4685   17.8289 H     794  UNL794      0.1146
   3176 H          19.5778    7.6770   19.2311 H     794  UNL794      0.1146
   3177 N          19.3400    8.2898   21.3978 N.3   795  UNL795     -0.3437
   3178 H          18.5569    7.6963   21.6674 H     795  UNL795      0.1146
   3179 H          19.1054    9.2278   21.7197 H     795  UNL795      0.1146
   3180 H          20.1302    7.9875   21.9658 H     795  UNL795      0.1146
   3181 N          19.2133   10.4864   -0.2112 N.3   796  UNL796     -0.3437
   3182 H          18.7716   10.6282   -1.1185 H     796  UNL796      0.1146
   3183 H          19.9389    9.7862   -0.3584 H     796  UNL796      0.1146
   3184 H          19.7008   11.3552    0.0027 H     796  UNL796      0.1146
   3185 N          19.3475   10.3959    1.9293 N.3   797  UNL797     -0.3437
   3186 H          19.8925   11.2560    1.8903 H     797  UNL797      0.1146
   3187 H          18.3708   10.6790    1.8635 H     797  UNL797      0.1146
   3188 H          19.5530    9.8938    1.0667 H     797  UNL797      0.1146
   3189 N          19.0538   10.7465    3.7694 N.3   798  UNL798     -0.3437
   3190 H          19.1816   10.1042    2.9887 H     798  UNL798      0.1146
   3191 H          18.9587   10.1637    4.5999 H     798  UNL798      0.1146
   3192 H          19.9384   11.2415    3.8736 H     798  UNL798      0.1146
   3193 N          19.0942   10.6975    5.7468 N.3   799  UNL799     -0.3437
   3194 H          18.6525   10.2701    6.5595 H     799  UNL799      0.1146
   3195 H          19.8198   11.3126    6.1124 H     799  UNL799      0.1146
   3196 H          19.5817    9.9444    5.2635 H     799  UNL799      0.1146
   3197 N          19.0252    8.6985    7.9129 N.3   800  UNL800     -0.3437
   3198 H          19.4759    9.4065    8.4907 H     800  UNL800      0.1146
   3199 H          19.6966    8.4618    7.1838 H     800  UNL800      0.1146
   3200 H          18.9426    7.8688    8.4986 H     800  UNL800      0.1146
   3201 N          19.2930   10.2801   10.0682 N.3   801  UNL801     -0.3437
   3202 H          18.6715   10.7972    9.4479 H     801  UNL801      0.1146
   3203 H          20.1991   10.7422   10.0070 H     801  UNL801      0.1146
   3204 H          18.9533   10.4521   11.0134 H     801  UNL801      0.1146
   3205 N          19.0577   10.6770   12.1086 N.3   802  UNL802     -0.3437
   3206 H          19.1855    9.6914   11.8839 H     802  UNL802      0.1146
   3207 H          18.9626   10.7240   13.1221 H     802  UNL802      0.1146
   3208 H          19.9423   11.1323   11.8882 H     802  UNL802      0.1146
   3209 N          19.0942   10.4824   14.5774 N.3   803  UNL803     -0.3437
   3210 H          18.6525   10.6242   13.6702 H     803  UNL803      0.1146
   3211 H          19.8198    9.7823   14.4302 H     803  UNL803      0.1146
   3212 H          19.5817   11.3513   14.7914 H     803  UNL803      0.1146
   3213 N          18.9765   10.2590   16.3231 N.3   804  UNL804     -0.3437
   3214 H          18.7757   11.2444   16.1586 H     804  UNL804      0.1146
   3215 H          19.9607   10.1306   16.0923 H     804  UNL804      0.1146
   3216 H          18.9040   10.1219   17.3302 H     804  UNL804      0.1146
   3217 N          19.0558   10.4358   18.4501 N.3   805  UNL805     -0.3437
   3218 H          19.1835   10.0526   19.3856 H     805  UNL805      0.1146
   3219 H          18.9607   11.4433   18.5698 H     805  UNL805      0.1146
   3220 H          19.9404   10.2930   17.9649 H     805  UNL805      0.1146
   3221 N          19.1317   10.5535   21.9749 N.3   806  UNL806     -0.3437
   3222 H          19.9600    9.9599   21.9728 H     806  UNL806      0.1146
   3223 H          19.4577   11.4914   21.7461 H     806  UNL806      0.1146
   3224 H          18.5675   10.2511   21.1820 H     806  UNL806      0.1146
   3225 N          19.0981   13.0066   -0.2465 N.3   807  UNL807     -0.3437
   3226 H          18.6564   12.1348   -0.5350 H     807  UNL807      0.1146
   3227 H          19.8237   12.7467    0.4201 H     807  UNL807      0.1146
   3228 H          19.5856   13.3599   -1.0686 H     807  UNL807      0.1146
   3229 N          19.0903   12.9534    1.6439 N.3   808  UNL808     -0.3437
   3230 H          18.6486   12.5260    2.4566 H     808  UNL808      0.1146
   3231 H          19.8159   13.5684    2.0095 H     808  UNL808      0.1146
   3232 H          19.5778   12.2002    1.1606 H     808  UNL808      0.1146
   3233 N          19.0981   13.0066    3.9788 N.3   809  UNL809     -0.3437
   3234 H          18.6564   12.1348    3.6903 H     809  UNL809      0.1146
   3235 H          19.8237   12.7467    4.6454 H     809  UNL809      0.1146
   3236 H          19.5856   13.3599    3.1567 H     809  UNL809      0.1146
   3237 N          19.0864   10.9656    8.1442 N.3   810  UNL810     -0.3437
   3238 H          18.6447   10.0938    7.8557 H     810  UNL810      0.1146
   3239 H          19.8120   10.7056    8.8108 H     810  UNL810      0.1146
   3240 H          19.5739   11.3189    7.3221 H     810  UNL810      0.1146
   3241 N          19.5526   12.7923   10.2470 N.3   811  UNL811     -0.3437
   3242 H          19.5450   13.0829    9.2704 H     811  UNL811      0.1146
   3243 H          18.9956   13.4819   10.7496 H     811  UNL811      0.1146
   3244 H          19.0236   11.9222   10.2853 H     811  UNL811      0.1146
   3245 N          19.0864   12.7962   12.0284 N.3   812  UNL812     -0.3437
   3246 H          18.6447   13.0868   12.8995 H     812  UNL812      0.1146
   3247 H          19.8120   13.4858   11.8377 H     812  UNL812      0.1146
   3248 H          19.5739   11.9261   12.2373 H     812  UNL812      0.1146
   3249 N          19.4895   13.0150   14.2892 N.3   813  UNL813     -0.3437
   3250 H          18.9574   13.2940   15.1123 H     813  UNL813      0.1146
   3251 H          19.9151   12.1185   14.5205 H     813  UNL813      0.1146
   3252 H          18.8018   12.8203   13.5629 H     813  UNL813      0.1146
   3253 N          18.9892   12.7923   16.3363 N.3   814  UNL814     -0.3437
   3254 H          19.3120   13.0829   17.2581 H     814  UNL814      0.1146
   3255 H          19.3539   13.4819   15.6807 H     814  UNL814      0.1146
   3256 H          19.4774   11.9222   16.1291 H     814  UNL814      0.1146
   3257 N          19.0538   12.6975   18.4540 N.3   815  UNL815     -0.3437
   3258 H          19.1816   12.3143   19.3895 H     815  UNL815      0.1146
   3259 H          18.9587   13.7050   18.5737 H     815  UNL815      0.1146
   3260 H          19.9384   12.5546   17.9688 H     815  UNL815      0.1146
   3261 N          17.5220   12.8719   21.4988 N.3   816  UNL816     -0.3437
   3262 H          17.3408   13.6589   22.1202 H     816  UNL816      0.1146
   3263 H          17.7004   12.0715   22.1038 H     816  UNL816      0.1146
   3264 H          16.6396   12.6769   21.0279 H     816  UNL816      0.1146
   3265 N          19.5565   15.0481   -0.3124 N.3   817  UNL817     -0.3437
   3266 H          19.5489   15.3387   -1.2890 H     817  UNL817      0.1146
   3267 H          18.9995   15.7377    0.1902 H     817  UNL817      0.1146
   3268 H          19.0275   14.1780   -0.2741 H     817  UNL817      0.1146
   3269 N          19.0883   15.0710    1.4612 N.3   818  UNL818     -0.3437
   3270 H          18.6943   15.4235    2.3323 H     818  UNL818      0.1146
   3271 H          19.9076   15.6461    1.2705 H     818  UNL818      0.1146
   3272 H          19.4422   14.1385    1.6701 H     818  UNL818      0.1146
   3273 N          19.0557   15.0481    3.6067 N.3   819  UNL819     -0.3437
   3274 H          18.7472   15.3387    4.5334 H     819  UNL819      0.1146
   3275 H          19.7453   15.7377    3.3111 H     819  UNL819      0.1146
   3276 H          19.5687   14.1780    3.7414 H     819  UNL819      0.1146
   3277 N          19.2719   16.3162    5.7278 N.3   820  UNL820     -0.3437
   3278 H          18.4658   16.2663    6.3492 H     820  UNL820      0.1146
   3279 H          20.0906   16.3610    6.3328 H     820  UNL820      0.1146
   3280 H          19.3197   15.4137    5.2569 H     820  UNL820      0.1146
   3281 N          19.0864   16.0618    7.8031 N.3   821  UNL821     -0.3437
   3282 H          18.6447   16.3524    8.6742 H     821  UNL821      0.1146
   3283 H          19.8120   16.7514    7.6124 H     821  UNL821      0.1146
   3284 H          19.5739   15.1917    8.0120 H     821  UNL821      0.1146
   3285 N          19.2699   16.3474    9.9531 N.3   822  UNL822     -0.3437
   3286 H          18.4639   16.2975   10.5745 H     822  UNL822      0.1146
   3287 H          20.0887   16.3922   10.5581 H     822  UNL822      0.1146
   3288 H          19.3178   15.4450    9.4822 H     822  UNL822      0.1146
   3289 N          19.2641   16.3474   12.0696 N.3   823  UNL823     -0.3437
   3290 H          18.4580   16.2975   12.6911 H     823  UNL823      0.1146
   3291 H          20.0828   16.3922   12.6746 H     823  UNL823      0.1146
   3292 H          19.3119   15.4450   11.5988 H     823  UNL823      0.1146
   3293 N          19.2699   16.3474   14.1764 N.3   824  UNL824     -0.3437
   3294 H          18.4639   16.2975   14.7979 H     824  UNL824      0.1146
   3295 H          20.0887   16.3922   14.7814 H     824  UNL824      0.1146
   3296 H          19.3178   15.4450   13.7056 H     824  UNL824      0.1146
   3297 N          19.2699   16.3474   16.2891 N.3   825  UNL825     -0.3437
   3298 H          18.4639   16.2975   16.9106 H     825  UNL825      0.1146
   3299 H          20.0887   16.3922   16.8941 H     825  UNL825      0.1146
   3300 H          19.3178   15.4450   15.8182 H     825  UNL825      0.1146
   3301 N          19.2641   16.3474   18.4076 N.3   826  UNL826     -0.3437
   3302 H          18.4580   16.2975   19.0291 H     826  UNL826      0.1146
   3303 H          20.0828   16.3922   19.0126 H     826  UNL826      0.1146
   3304 H          19.3119   15.4450   17.9367 H     826  UNL826      0.1146
   3305 N          19.0922   15.0461   20.4810 N.3   827  UNL827     -0.3437
   3306 H          18.6505   15.3367   21.3521 H     827  UNL827      0.1146
   3307 H          19.8178   15.7357   20.2903 H     827  UNL827      0.1146
   3308 H          19.5797   14.1760   20.6899 H     827  UNL827      0.1146
   3309 N          21.1342   -0.8433    6.1195 N.3   828  UNL828     -0.3437
   3310 H          22.0781   -1.2265    6.1467 H     828  UNL828      0.1146
   3311 H          21.2368    0.1642    6.2329 H     828  UNL828      0.1146
   3312 H          20.8005   -0.9861    5.1674 H     828  UNL828      0.1146
   3313 N          19.1645   -0.3227    7.6742 N.3   829  UNL829     -0.3437
   3314 H          18.7228   -0.0321    8.5453 H     829  UNL829      0.1146
   3315 H          19.8901    0.3669    7.4835 H     829  UNL829      0.1146
   3316 H          19.6520   -1.1928    7.8831 H     829  UNL829      0.1146
   3317 N          21.2099   -0.5187    7.9327 N.3   830  UNL830     -0.3437
   3318 H          20.5710   -0.6840    8.7092 H     830  UNL830      0.1146
   3319 H          22.0972   -0.2448    8.3524 H     830  UNL830      0.1146
   3320 H          21.3714   -1.4286    7.5033 H     830  UNL830      0.1146
   3321 N          21.1234   -0.5205   10.3168 N.3   831  UNL831     -0.3437
   3322 H          20.6817   -1.3923   10.0283 H     831  UNL831      0.1146
   3323 H          21.8490   -0.7804   10.9834 H     831  UNL831      0.1146
   3324 H          21.6109   -0.1672    9.4947 H     831  UNL831      0.1146
   3325 N          21.1117   -0.5777   12.2384 N.3   832  UNL832     -0.3437
   3326 H          20.6700   -1.0051   13.0512 H     832  UNL832      0.1146
   3327 H          21.8373    0.0374   12.6040 H     832  UNL832      0.1146
   3328 H          21.5992   -1.3308   11.7552 H     832  UNL832      0.1146
   3329 N          21.1176    1.7333   -0.3123 N.3   833  UNL833     -0.3437
   3330 H          20.6759    0.8615   -0.6008 H     833  UNL833      0.1146
   3331 H          21.8432    1.4734    0.3543 H     833  UNL833      0.1146
   3332 H          21.6051    2.0867   -1.1344 H     833  UNL833      0.1146
   3333 N          21.5858   -0.5044    1.7983 N.3   834  UNL834     -0.3437
   3334 H          21.5782   -0.2138    0.8217 H     834  UNL834      0.1146
   3335 H          21.0287    0.1852    2.3009 H     834  UNL834      0.1146
   3336 H          21.0568   -1.3745    1.8366 H     834  UNL834      0.1146
   3337 N          21.1156   -0.4419    3.5739 N.3   835  UNL835     -0.3437
   3338 H          20.6739   -0.1513    4.4450 H     835  UNL835      0.1146
   3339 H          21.8412    0.2477    3.3832 H     835  UNL835      0.1146
   3340 H          21.6031   -1.3120    3.7828 H     835  UNL835      0.1146
   3341 N          21.1176    1.6782    5.7390 N.3   836  UNL836     -0.3437
   3342 H          20.6759    1.2508    6.5517 H     836  UNL836      0.1146
   3343 H          21.8432    2.2932    6.1046 H     836  UNL836      0.1146
   3344 H          21.6051    0.9251    5.2557 H     836  UNL836      0.1146
   3345 N          21.1234    1.7392    8.1384 N.3   837  UNL837     -0.3437
   3346 H          20.6817    0.8674    7.8499 H     837  UNL837      0.1146
   3347 H          21.8490    1.4793    8.8050 H     837  UNL837      0.1146
   3348 H          21.6109    2.0926    7.3163 H     837  UNL837      0.1146
   3349 N          21.1234    1.5171    9.9196 N.3   838  UNL838     -0.3437
   3350 H          20.6817    1.8077   10.7907 H     838  UNL838      0.1146
   3351 H          21.8490    2.2067    9.7289 H     838  UNL838      0.1146
   3352 H          21.6109    0.6470   10.1285 H     838  UNL838      0.1146
   3353 N          21.1234    1.4768   12.0427 N.3   839  UNL839     -0.3437
   3354 H          20.6817    1.8926   12.8614 H     839  UNL839      0.1146
   3355 H          21.8490    2.1308   11.7524 H     839  UNL839      0.1146
   3356 H          21.6109    0.6470   12.3776 H     839  UNL839      0.1146
   3357 N          21.0165    1.5093   14.3506 N.3   840  UNL840     -0.3437
   3358 H          21.3393    1.7999   15.2724 H     840  UNL840      0.1146
   3359 H          21.3812    2.1989   13.6950 H     840  UNL840      0.1146
   3360 H          21.5047    0.6392   14.1434 H     840  UNL840      0.1146
   3361 N          21.1195   -0.4732   16.2576 N.3   841  UNL841     -0.3437
   3362 H          20.6778   -0.1826   17.1287 H     841  UNL841      0.1146
   3363 H          21.8451    0.2164   16.0669 H     841  UNL841      0.1146
   3364 H          21.6070   -1.3433   16.4665 H     841  UNL841      0.1146
   3365 N          21.1215   -0.3191   18.7736 N.3   842  UNL842     -0.3437
   3366 H          20.6798   -0.9772   18.1331 H     842  UNL842      0.1146
   3367 H          21.8471   -0.8442   19.2596 H     842  UNL842      0.1146
   3368 H          21.6090    0.3580   18.1885 H     842  UNL842      0.1146
   3369 N          21.1176   -0.2354   20.8143 N.3   843  UNL843     -0.3437
   3370 H          20.6759   -1.1072   20.5258 H     843  UNL843      0.1146
   3371 H          21.8432   -0.4953   21.4809 H     843  UNL843      0.1146
   3372 H          21.6051    0.1179   19.9922 H     843  UNL843      0.1146
   3373 N          21.1176    1.6485    1.8445 N.3   844  UNL844     -0.3437
   3374 H          20.6759    2.1725    1.0903 H     844  UNL844      0.1146
   3375 H          21.8432    1.0831    1.4061 H     844  UNL844      0.1146
   3376 H          21.6051    2.3366    2.4165 H     844  UNL844      0.1146
   3377 N          21.4794    3.6683    4.0149 N.3   845  UNL845     -0.3437
   3378 H          21.6609    3.2851    3.0883 H     845  UNL845      0.1146
   3379 H          21.6081    4.6758    3.9323 H     845  UNL845      0.1146
   3380 H          20.4855    3.5255    4.1882 H     845  UNL845      0.1146
   3381 N          21.1234    3.9872    6.0237 N.3   846  UNL846     -0.3437
   3382 H          20.6817    3.1154    5.7352 H     846  UNL846      0.1146
   3383 H          21.8490    3.7273    6.6903 H     846  UNL846      0.1146
   3384 H          21.6109    4.3406    5.2016 H     846  UNL846      0.1146
   3385 N          21.1195    3.7150    8.2355 N.3   847  UNL847     -0.3437
   3386 H          20.6778    3.8568    7.3283 H     847  UNL847      0.1146
   3387 H          21.8451    3.0148    8.0883 H     847  UNL847      0.1146
   3388 H          21.6070    4.5839    8.4495 H     847  UNL847      0.1146
   3389 N          21.1234    3.6066   10.2607 N.3   848  UNL848     -0.3437
   3390 H          20.6817    4.2737    9.6297 H     848  UNL848      0.1146
   3391 H          21.8490    3.1427    9.7160 H     848  UNL848      0.1146
   3392 H          21.6109    4.1631   10.9614 H     848  UNL848      0.1146
   3393 N          21.1234    3.9833   12.3578 N.3   849  UNL849     -0.3437
   3394 H          20.6817    3.1115   12.0693 H     849  UNL849      0.1146
   3395 H          21.8490    3.7234   13.0244 H     849  UNL849      0.1146
   3396 H          21.6109    4.3367   11.5357 H     849  UNL849      0.1146
   3397 N          21.1195    3.9911   14.4783 N.3   850  UNL850     -0.3437
   3398 H          20.6778    3.1193   14.1898 H     850  UNL850      0.1146
   3399 H          21.8451    3.7312   15.1449 H     850  UNL850      0.1146
   3400 H          21.6070    4.3445   13.6562 H     850  UNL850      0.1146
   3401 N          21.1347    3.9135   16.6829 N.3   851  UNL851     -0.3437
   3402 H          20.9338    2.9278   16.5200 H     851  UNL851      0.1146
   3403 H          22.1189    3.9604   16.9427 H     851  UNL851      0.1146
   3404 H          21.0621    4.3688   15.7741 H     851  UNL851      0.1146
   3405 N          20.9391    2.7502   18.7511 N.3   852  UNL852     -0.3437
   3406 H          21.3552    1.8225   18.6835 H     852  UNL852      0.1146
   3407 H          21.6631    3.3554   19.1358 H     852  UNL852      0.1146
   3408 H          20.7922    3.0626   17.7923 H     852  UNL852      0.1146
   3409 N          21.0525    1.9320   20.7739 N.3   853  UNL853     -0.3437
   3410 H          21.5032    1.4780   21.5670 H     853  UNL853      0.1146
   3411 H          21.7239    2.6125   20.4210 H     853  UNL853      0.1146
   3412 H          20.9699    1.2183   20.0513 H     853  UNL853      0.1146
   3413 N          21.3242    6.2363   -0.6452 N.3   854  UNL854     -0.3437
   3414 H          20.7027    6.5592    0.0950 H     854  UNL854      0.1146
   3415 H          22.2303    6.0840   -0.2046 H     854  UNL854      0.1146
   3416 H          20.9845    5.3142   -0.9149 H     854  UNL854      0.1146
   3417 N          21.4486    4.3561    1.7253 N.3   855  UNL855     -0.3437
   3418 H          21.6061    3.7142    2.5010 H     855  UNL855      0.1146
   3419 H          21.7493    3.8620    0.8864 H     855  UNL855      0.1146
   3420 H          20.4378    4.4567    1.6448 H     855  UNL855      0.1146
   3421 N          21.1234    5.8650    3.6621 N.3   856  UNL856     -0.3437
   3422 H          20.6817    6.6948    4.0555 H     856  UNL856      0.1146
   3423 H          21.8490    6.2048    3.0325 H     856  UNL856      0.1146
   3424 H          21.6109    5.4134    4.4346 H     856  UNL856      0.1146
   3425 N          21.1234    5.9708    6.1229 N.3   857  UNL857     -0.3437
   3426 H          20.6817    6.1126    5.2156 H     857  UNL857      0.1146
   3427 H          21.8490    5.2706    5.9757 H     857  UNL857      0.1146
   3428 H          21.6109    6.8397    6.3368 H     857  UNL857      0.1146
   3429 N          21.1234    6.2391    8.1325 N.3   858  UNL858     -0.3437
   3430 H          20.6817    5.3673    7.8440 H     858  UNL858      0.1146
   3431 H          21.8490    5.9792    8.7991 H     858  UNL858      0.1146
   3432 H          21.6109    6.5925    7.3104 H     858  UNL858      0.1146
   3433 N          21.1156    6.2489   10.2549 N.3   859  UNL859     -0.3437
   3434 H          20.6739    5.3771    9.9664 H     859  UNL859      0.1146
   3435 H          21.8412    5.9890   10.9215 H     859  UNL859      0.1146
   3436 H          21.6031    6.6022    9.4328 H     859  UNL859      0.1146
   3437 N          21.1156    5.9747   12.4648 N.3   860  UNL860     -0.3437
   3438 H          20.6739    6.1165   11.5575 H     860  UNL860      0.1146
   3439 H          21.8412    5.2745   12.3176 H     860  UNL860      0.1146
   3440 H          21.6031    6.8436   12.6787 H     860  UNL860      0.1146
   3441 N          21.1234    6.0229   14.1489 N.3   861  UNL861     -0.3437
   3442 H          20.6817    6.3135   15.0200 H     861  UNL861      0.1146
   3443 H          21.8490    6.7125   13.9582 H     861  UNL861      0.1146
   3444 H          21.6109    5.1528   14.3578 H     861  UNL861      0.1146
   3445 N          21.2484    6.0170   16.2498 N.3   862  UNL862     -0.3437
   3446 H          20.8067    6.3076   17.1209 H     862  UNL862      0.1146
   3447 H          21.9740    6.7066   16.0591 H     862  UNL862      0.1146
   3448 H          21.7359    5.1469   16.4587 H     862  UNL862      0.1146
   3449 N          21.1234    5.8689   18.4586 N.3   863  UNL863     -0.3437
   3450 H          20.6817    6.6987   18.8519 H     863  UNL863      0.1146
   3451 H          21.8490    6.2087   17.8289 H     863  UNL863      0.1146
   3452 H          21.6109    5.4173   19.2311 H     863  UNL863      0.1146
   3453 N          21.1156    4.1981   20.8143 N.3   864  UNL864     -0.3437
   3454 H          20.6739    3.3263   20.5258 H     864  UNL864      0.1146
   3455 H          21.8412    3.9382   21.4809 H     864  UNL864      0.1146
   3456 H          21.6031    4.5515   19.9922 H     864  UNL864      0.1146
   3457 N          21.1215    8.2286   -0.0692 N.3   865  UNL865     -0.3437
   3458 H          20.6798    8.3704   -0.9765 H     865  UNL865      0.1146
   3459 H          21.8471    7.5284   -0.2164 H     865  UNL865      0.1146
   3460 H          21.6090    9.0975    0.1447 H     865  UNL865      0.1146
   3461 N          21.1195    8.3098    1.5937 N.3   866  UNL866     -0.3437
   3462 H          20.6778    8.4688    2.4981 H     866  UNL866      0.1146
   3463 H          21.8451    9.0200    1.5067 H     866  UNL866      0.1146
   3464 H          21.6070    7.4184    1.6721 H     866  UNL866      0.1146
   3465 N          21.1234    8.2266    4.1092 N.3   867  UNL867     -0.3437
   3466 H          20.6817    8.3684    3.2019 H     867  UNL867      0.1146
   3467 H          21.8490    7.5265    3.9620 H     867  UNL867      0.1146
   3468 H          21.6109    9.0955    4.3231 H     867  UNL867      0.1146
   3469 N          21.1176    8.4456    5.9005 N.3   868  UNL868     -0.3437
   3470 H          20.6759    8.0182    6.7132 H     868  UNL868      0.1146
   3471 H          21.8432    9.0606    6.2661 H     868  UNL868      0.1146
   3472 H          21.6051    7.6925    5.4172 H     868  UNL868      0.1146
   3473 N          21.0753    8.1401   10.2374 N.3   869  UNL869     -0.3437
   3474 H          21.2030    9.0002   10.7686 H     869  UNL869      0.1146
   3475 H          20.9802    8.4232    9.2631 H     869  UNL869      0.1146
   3476 H          21.9599    7.6380   10.2988 H     869  UNL869      0.1146
   3477 N          21.3242    8.4882   12.0249 N.3   870  UNL870     -0.3437
   3478 H          20.7027    8.8111   12.7651 H     870  UNL870      0.1146
   3479 H          22.2303    8.3359   12.4655 H     870  UNL870      0.1146
   3480 H          20.9845    7.5662   11.7552 H     870  UNL870      0.1146
   3481 N          21.2258    8.4941   14.5803 N.3   871  UNL871     -0.3437
   3482 H          22.0531    8.8169   14.0807 H     871  UNL871      0.1146
   3483 H          20.5106    8.3418   13.8706 H     871  UNL871      0.1146
   3484 H          21.4601    7.5720   14.9453 H     871  UNL871      0.1146
   3485 N          21.1117    8.2806   16.2596 N.3   872  UNL872     -0.3437
   3486 H          20.6700    8.5712   17.1307 H     872  UNL872      0.1146
   3487 H          21.8373    8.9702   16.0689 H     872  UNL872      0.1146
   3488 H          21.5992    7.4105   16.4685 H     872  UNL872      0.1146
   3489 N          21.3567    8.0772   18.7727 N.3   873  UNL873     -0.3437
   3490 H          20.4123    8.4548   18.8334 H     873  UNL873      0.1146
   3491 H          21.4964    7.8256   17.7951 H     873  UNL873      0.1146
   3492 H          21.9842    8.8594   18.9537 H     873  UNL873      0.1146
   3493 N          21.1176    6.3256   20.4810 N.3   874  UNL874     -0.3437
   3494 H          20.6759    6.6162   21.3521 H     874  UNL874      0.1146
   3495 H          21.8432    7.0152   20.2903 H     874  UNL874      0.1146
   3496 H          21.6051    5.4555   20.6899 H     874  UNL874      0.1146
   3497 N          21.3728   10.4037   -0.1795 N.3   875  UNL875     -0.3437
   3498 H          21.9179   11.2638   -0.2185 H     875  UNL875      0.1146
   3499 H          20.3961   10.6868   -0.2453 H     875  UNL875      0.1146
   3500 H          21.5783    9.9016   -1.0421 H     875  UNL875      0.1146
   3501 N          21.1195   10.4023    1.8445 N.3   876  UNL876     -0.3437
   3502 H          20.6778   10.9263    1.0903 H     876  UNL876      0.1146
   3503 H          21.8451    9.8369    1.4061 H     876  UNL876      0.1146
   3504 H          21.6070   11.0904    2.4165 H     876  UNL876      0.1146
   3505 N          21.2458   10.5365    4.0837 N.3   877  UNL877     -0.3437
   3506 H          22.2080   10.8271    3.9163 H     877  UNL877      0.1146
   3507 H          20.6588   11.2261    3.6165 H     877  UNL877      0.1146
   3508 H          21.1214    9.6664    3.5682 H     877  UNL877      0.1146
   3509 N          21.1195   10.7034    5.7409 N.3   878  UNL878     -0.3437
   3510 H          20.6778   10.2760    6.5537 H     878  UNL878      0.1146
   3511 H          21.8451   11.3184    6.1065 H     878  UNL878      0.1146
   3512 H          21.6070    9.9503    5.2577 H     878  UNL878      0.1146
   3513 N          21.1234   10.5365    7.7992 N.3   879  UNL879     -0.3437
   3514 H          20.6817   10.8271    8.6703 H     879  UNL879      0.1146
   3515 H          21.8490   11.2261    7.6085 H     879  UNL879      0.1146
   3516 H          21.6109    9.6664    8.0081 H     879  UNL879      0.1146
   3517 N          21.1234   10.5286    9.9118 N.3   880  UNL880     -0.3437
   3518 H          20.6817   10.8192   10.7829 H     880  UNL880      0.1146
   3519 H          21.8490   11.2182    9.7211 H     880  UNL880      0.1146
   3520 H          21.6109    9.6585   10.1207 H     880  UNL880      0.1146
   3521 N          21.1234   10.5365   12.0362 N.3   881  UNL881     -0.3437
   3522 H          20.6817   10.8271   12.9073 H     881  UNL881      0.1146
   3523 H          21.8490   11.2261   11.8455 H     881  UNL881      0.1146
   3524 H          21.6109    9.6664   12.2451 H     881  UNL881      0.1146
   3525 N          21.4134   10.4417   14.1158 N.3   882  UNL882     -0.3437
   3526 H          20.5115   10.0585   14.3950 H     882  UNL882      0.1146
   3527 H          21.2798   11.4492   14.0416 H     882  UNL882      0.1146
   3528 H          22.0370   10.2988   14.9089 H     882  UNL882      0.1146
   3529 N          21.1234   10.6944   16.6609 N.3   883  UNL883     -0.3437
   3530 H          20.6817   10.0363   16.0205 H     883  UNL883      0.1146
   3531 H          21.8490   10.1694   17.1469 H     883  UNL883      0.1146
   3532 H          21.6109   11.3715   16.0758 H     883  UNL883      0.1146
   3533 N          21.2458   10.5325   18.8763 N.3   884  UNL884     -0.3437
   3534 H          22.2080   10.8231   18.7088 H     884  UNL884      0.1146
   3535 H          20.6588   11.2221   18.4091 H     884  UNL884      0.1146
   3536 H          21.1214    9.6624   18.3607 H     884  UNL884      0.1146
   3537 N          21.2536    8.5345   21.9440 N.3   885  UNL885     -0.3437
   3538 H          22.2158    8.8251   21.7765 H     885  UNL885      0.1146
   3539 H          20.6666    9.2241   21.4768 H     885  UNL885      0.1146
   3540 H          21.1292    7.6644   21.4284 H     885  UNL885      0.1146
   3541 N          21.1234   13.0105   -0.2152 N.3   886  UNL886     -0.3437
   3542 H          20.6817   12.1387   -0.5038 H     886  UNL886      0.1146
   3543 H          21.8490   12.7506    0.4514 H     886  UNL886      0.1146
   3544 H          21.6109   13.3638   -1.0374 H     886  UNL886      0.1146
   3545 N          21.1234   12.7383    1.9653 N.3   887  UNL887     -0.3437
   3546 H          20.6817   12.8801    1.0580 H     887  UNL887      0.1146
   3547 H          21.8490   12.0381    1.8181 H     887  UNL887      0.1146
   3548 H          21.6109   13.6071    2.1792 H     887  UNL887      0.1146
   3549 N          21.1215   12.8253    3.7376 N.3   888  UNL888     -0.3437
   3550 H          20.6798   12.9844    4.6420 H     888  UNL888      0.1146
   3551 H          21.8471   13.5355    3.6506 H     888  UNL888      0.1146
   3552 H          21.6090   11.9340    3.8160 H     888  UNL888      0.1146
   3553 N          19.3422   13.0389    5.8853 N.3   889  UNL889     -0.3437
   3554 H          18.5361   12.9890    6.5068 H     889  UNL889      0.1146
   3555 H          20.1609   13.0837    6.4903 H     889  UNL889      0.1146
   3556 H          19.3900   12.1364    5.4145 H     889  UNL889      0.1146
   3557 N          21.1195   12.9612    7.9194 N.3   890  UNL890     -0.3437
   3558 H          20.6778   12.5338    8.7321 H     890  UNL890      0.1146
   3559 H          21.8451   13.5762    8.2850 H     890  UNL890      0.1146
   3560 H          21.6070   12.2081    7.4361 H     890  UNL890      0.1146
   3561 N          21.1234   12.9573   10.0633 N.3   891  UNL891     -0.3437
   3562 H          20.6817   12.5299   10.8760 H     891  UNL891      0.1146
   3563 H          21.8490   13.5723   10.4289 H     891  UNL891      0.1146
   3564 H          21.6109   12.2042    9.5800 H     891  UNL891      0.1146
   3565 N          21.1234   12.6220   12.5153 N.3   892  UNL892     -0.3437
   3566 H          20.6817   13.2892   11.8843 H     892  UNL892      0.1146
   3567 H          21.8490   12.1582   11.9706 H     892  UNL892      0.1146
   3568 H          21.6109   13.1786   13.2161 H     892  UNL892      0.1146
   3569 N          21.0911   12.6259   16.4260 N.3   893  UNL893     -0.3437
   3570 H          20.7947   13.4090   17.0068 H     893  UNL893      0.1146
   3571 H          21.4590   13.0355   15.5685 H     893  UNL893      0.1146
   3572 H          21.8892   12.2088   16.9029 H     893  UNL893      0.1146
   3573 N          21.1234   12.7923   18.3683 N.3   894  UNL894     -0.3437
   3574 H          20.6817   13.0829   19.2394 H     894  UNL894      0.1146
   3575 H          21.8490   13.4819   18.1776 H     894  UNL894      0.1146
   3576 H          21.6109   11.9222   18.5772 H     894  UNL894      0.1146
   3577 N          21.3506   10.6972   20.9648 N.3   895  UNL895     -0.3437
   3578 H          21.4259   11.7109   21.0370 H     895  UNL895      0.1146
   3579 H          20.4370   10.5120   20.5533 H     895  UNL895      0.1146
   3580 H          22.0360   10.4137   20.2660 H     895  UNL895      0.1146
   3581 N          21.0294   16.0754   -0.3701 N.3   896  UNL896     -0.3437
   3582 H          21.5748   15.2149   -0.3497 H     896  UNL896      0.1146
   3583 H          21.4668   16.7012    0.3048 H     896  UNL896      0.1146
   3584 H          21.1942   16.4907   -1.2859 H     896  UNL896      0.1146
   3585 N          21.2933   16.3474    1.5024 N.3   897  UNL897     -0.3437
   3586 H          20.4873   16.2975    2.1239 H     897  UNL897      0.1146
   3587 H          22.1121   16.3922    2.1074 H     897  UNL897      0.1146
   3588 H          21.3412   15.4450    1.0316 H     897  UNL897      0.1146
   3589 N          21.5665   16.2198    3.9114 N.3   898  UNL898     -0.3437
   3590 H          21.5226   16.2795    2.8951 H     898  UNL898      0.1146
   3591 H          20.7616   16.7397    4.2583 H     898  UNL898      0.1146
   3592 H          21.3911   15.2432    4.1433 H     898  UNL898      0.1146
   3593 N          21.4963   15.0076    5.6924 N.3   899  UNL899     -0.3437
   3594 H          21.7553   14.5467    6.5635 H     899  UNL899      0.1146
   3595 H          20.5351   14.7282    5.5017 H     899  UNL899      0.1146
   3596 H          21.4628   16.0044    5.9013 H     899  UNL899      0.1146
   3597 N          21.5858   16.0618    8.1383 N.3   900  UNL900     -0.3437
   3598 H          21.5782   16.3524    7.1616 H     900  UNL900      0.1146
   3599 H          21.0287   16.7514    8.6408 H     900  UNL900      0.1146
   3600 H          21.0568   15.1917    8.1765 H     900  UNL900      0.1146
   3601 N          21.4944   15.0135    9.9157 N.3   901  UNL901     -0.3437
   3602 H          21.7534   14.5525   10.7868 H     901  UNL901      0.1146
   3603 H          20.5332   14.7340    9.7250 H     901  UNL901      0.1146
   3604 H          21.4608   16.0103   10.1246 H     901  UNL901      0.1146
   3605 N          21.2497   15.0481   12.5344 N.3   902  UNL902     -0.3437
   3606 H          22.2119   15.3387   12.3669 H     902  UNL902      0.1146
   3607 H          20.6627   15.7377   12.0672 H     902  UNL902      0.1146
   3608 H          21.1253   14.1780   12.0188 H     902  UNL902      0.1146
   3609 N          21.4963   15.0076   14.1411 N.3   903  UNL903     -0.3437
   3610 H          21.7553   14.5467   15.0122 H     903  UNL903      0.1146
   3611 H          20.5351   14.7282   13.9504 H     903  UNL903      0.1146
   3612 H          21.4628   16.0044   14.3500 H     903  UNL903      0.1146
   3613 N          21.1176   15.0461   16.2557 N.3   904  UNL904     -0.3437
   3614 H          20.6759   15.3367   17.1268 H     904  UNL904      0.1146
   3615 H          21.8432   15.7357   16.0650 H     904  UNL904      0.1146
   3616 H          21.6051   14.1760   16.4646 H     904  UNL904      0.1146
   3617 N          21.1234   15.8651   18.7399 N.3   905  UNL905     -0.3437
   3618 H          20.6817   16.3891   17.9858 H     905  UNL905      0.1146
   3619 H          21.8490   15.2997   18.3016 H     905  UNL905      0.1146
   3620 H          21.6109   16.5532   19.3120 H     905  UNL905      0.1146
   3621 N          21.3374   16.0461   21.4259 N.3   906  UNL906     -0.3437
   3622 H          20.4030   16.3367   21.7102 H     906  UNL906      0.1146
   3623 H          21.9773   16.7357   21.8174 H     906  UNL906      0.1146
   3624 H          21.5241   15.1760   21.9223 H     906  UNL906      0.1146
   3625 N          24.1586   -0.5777   -0.5951 N.3   907  UNL907     -0.3437
   3626 H          23.7169   -1.0051    0.2177 H     907  UNL907      0.1146
   3627 H          24.8842    0.0374   -0.2295 H     907  UNL907      0.1146
   3628 H          24.6461   -1.3308   -1.0784 H     907  UNL907      0.1146
   3629 N          24.1429   -0.8693    1.5214 N.3   908  UNL908     -0.3437
   3630 H          23.7012   -0.1375    2.0762 H     908  UNL908      0.1146
   3631 H          24.8685   -0.4078    0.9746 H     908  UNL908      0.1146
   3632 H          24.6304   -1.4693    2.1852 H     908  UNL908      0.1146
   3633 N          23.3366   -1.0065    3.8728 N.3   909  UNL909     -0.3437
   3634 H          22.7844   -0.7980    3.0422 H     909  UNL909      0.1146
   3635 H          24.2725   -0.6500    3.6848 H     909  UNL909      0.1146
   3636 H          22.9574   -0.4216    4.6162 H     909  UNL909      0.1146
   3637 N          24.0290   -0.6216    5.8002 N.3   910  UNL910     -0.3437
   3638 H          24.4798    0.0864    6.3780 H     910  UNL910      0.1146
   3639 H          24.7004   -0.8583    5.0711 H     910  UNL910      0.1146
   3640 H          23.9465   -1.4513    6.3860 H     910  UNL910      0.1146
   3641 N          24.5741   -0.7426    7.9526 N.3   911  UNL911     -0.3437
   3642 H          23.9932   -0.4520    7.1674 H     911  UNL911      0.1146
   3643 H          24.4194   -0.0530    8.6867 H     911  UNL911      0.1146
   3644 H          24.1689   -1.6127    8.2948 H     911  UNL911      0.1146
   3645 N          24.1273   -0.5777    9.9682 N.3   912  UNL912     -0.3437
   3646 H          23.6856   -1.0051   10.7810 H     912  UNL912      0.1146
   3647 H          24.8529    0.0374   10.3338 H     912  UNL912      0.1146
   3648 H          24.6148   -1.3308    9.4849 H     912  UNL912      0.1146
   3649 N          24.1898   -0.5777   12.0769 N.3   913  UNL913     -0.3437
   3650 H          23.7481   -1.0051   12.8897 H     913  UNL913      0.1146
   3651 H          24.9154    0.0374   12.4425 H     913  UNL913      0.1146
   3652 H          24.6773   -1.3308   11.5937 H     913  UNL913      0.1146
   3653 N          24.1586   -0.5777   14.1896 N.3   914  UNL914     -0.3437
   3654 H          23.7169   -1.0051   15.0024 H     914  UNL914      0.1146
   3655 H          24.8842    0.0374   14.5552 H     914  UNL914      0.1146
   3656 H          24.6461   -1.3308   13.7064 H     914  UNL914      0.1146
   3657 N          24.1898   -0.5777   16.3023 N.3   915  UNL915     -0.3437
   3658 H          23.7481   -1.0051   17.1150 H     915  UNL915      0.1146
   3659 H          24.9154    0.0374   16.6679 H     915  UNL915      0.1146
   3660 H          24.6773   -1.3308   15.8190 H     915  UNL915      0.1146
   3661 N          24.1429   -0.5225   18.7036 N.3   916  UNL916     -0.3437
   3662 H          23.7012   -1.3943   18.4151 H     916  UNL916      0.1146
   3663 H          24.8685   -0.7824   19.3702 H     916  UNL916      0.1146
   3664 H          24.6304   -0.1691   17.8815 H     916  UNL916      0.1146
   3665 N          24.1898    1.7353   -0.3181 N.3   917  UNL917     -0.3437
   3666 H          23.7481    0.8635   -0.6066 H     917  UNL917      0.1146
   3667 H          24.9154    1.4754    0.3485 H     917  UNL917      0.1146
   3668 H          24.6773    2.0886   -1.1402 H     917  UNL917      0.1146
   3669 N          24.1117    1.6762    1.5195 N.3   918  UNL918     -0.3437
   3670 H          23.6700    1.2488    2.3323 H     918  UNL918      0.1146
   3671 H          24.8373    2.2912    1.8851 H     918  UNL918      0.1146
   3672 H          24.5992    0.9231    1.0363 H     918  UNL918      0.1146
   3673 N          24.1586    1.6782    3.6263 N.3   919  UNL919     -0.3437
   3674 H          23.7169    1.2508    4.4391 H     919  UNL919      0.1146
   3675 H          24.8842    2.2932    3.9919 H     919  UNL919      0.1146
   3676 H          24.6461    0.9251    3.1431 H     919  UNL919      0.1146
   3677 N          24.1898    1.6782    5.7390 N.3   920  UNL920     -0.3437
   3678 H          23.7481    1.2508    6.5517 H     920  UNL920      0.1146
   3679 H          24.9154    2.2932    6.1046 H     920  UNL920      0.1146
   3680 H          24.6773    0.9251    5.2557 H     920  UNL920      0.1146
   3681 N          24.1586    1.6782    7.8516 N.3   921  UNL921     -0.3437
   3682 H          23.7169    1.2508    8.6644 H     921  UNL921      0.1146
   3683 H          24.8842    2.2932    8.2172 H     921  UNL921      0.1146
   3684 H          24.6461    0.9251    7.3684 H     921  UNL921      0.1146
   3685 N          24.1898    1.6782    9.9643 N.3   922  UNL922     -0.3437
   3686 H          23.7481    1.2508   10.7770 H     922  UNL922      0.1146
   3687 H          24.9154    2.2932   10.3299 H     922  UNL922      0.1146
   3688 H          24.6773    0.9251    9.4810 H     922  UNL922      0.1146
   3689 N          24.1898    1.6782   12.0769 N.3   923  UNL923     -0.3437
   3690 H          23.7481    1.2508   12.8897 H     923  UNL923      0.1146
   3691 H          24.9154    2.2932   12.4425 H     923  UNL923      0.1146
   3692 H          24.6773    0.9251   11.5937 H     923  UNL923      0.1146
   3693 N          24.1586    1.6782   14.1896 N.3   924  UNL924     -0.3437
   3694 H          23.7169    1.2508   15.0024 H     924  UNL924      0.1146
   3695 H          24.8842    2.2932   14.5552 H     924  UNL924      0.1146
   3696 H          24.6461    0.9251   13.7064 H     924  UNL924      0.1146
   3697 N          24.1898    1.6782   16.3023 N.3   925  UNL925     -0.3437
   3698 H          23.7481    1.2508   17.1150 H     925  UNL925      0.1146
   3699 H          24.9154    2.2932   16.6679 H     925  UNL925      0.1146
   3700 H          24.6773    0.9251   15.8190 H     925  UNL925      0.1146
   3701 N          24.1586    1.7333   18.6997 N.3   926  UNL926     -0.3437
   3702 H          23.7169    0.8615   18.4112 H     926  UNL926      0.1146
   3703 H          24.8842    1.4734   19.3663 H     926  UNL926      0.1146
   3704 H          24.6461    2.0867   17.8776 H     926  UNL926      0.1146
   3705 N          24.5201   -0.6149   21.5279 N.3   927  UNL927     -0.3437
   3706 H          24.5517   -1.1427   22.3990 H     927  UNL927      0.1146
   3707 H          23.5334   -0.4463   21.3372 H     927  UNL927      0.1146
   3708 H          24.9255    0.2964   21.7368 H     927  UNL927      0.1146
   3709 N          24.6678    3.7729   -0.4902 N.3   928  UNL928     -0.3437
   3710 H          24.0870    4.0635   -1.2754 H     928  UNL928      0.1146
   3711 H          24.5132    4.4625    0.2439 H     928  UNL928      0.1146
   3712 H          24.2626    2.9028   -0.1480 H     928  UNL928      0.1146
   3713 N          24.4264    3.6624    1.4729 N.3   929  UNL929     -0.3437
   3714 H          24.4579    3.1346    2.3440 H     929  UNL929      0.1146
   3715 H          23.4397    3.8310    1.2822 H     929  UNL929      0.1146
   3716 H          24.8317    4.5737    1.6818 H     929  UNL929      0.1146
   3717 N          24.1898    3.9911    3.9072 N.3   930  UNL930     -0.3437
   3718 H          23.7481    3.1193    3.6187 H     930  UNL930      0.1146
   3719 H          24.9154    3.7312    4.5738 H     930  UNL930      0.1146
   3720 H          24.6773    4.3445    3.0851 H     930  UNL930      0.1146
   3721 N          24.0961    3.9340    5.7468 N.3   931  UNL931     -0.3437
   3722 H          23.6544    3.5066    6.5595 H     931  UNL931      0.1146
   3723 H          24.8217    4.5490    6.1124 H     931  UNL931      0.1146
   3724 H          24.5836    3.1809    5.2635 H     931  UNL931      0.1146
   3725 N          24.1273    3.9340    7.8516 N.3   932  UNL932     -0.3437
   3726 H          23.6856    3.5066    8.6644 H     932  UNL932      0.1146
   3727 H          24.8529    4.5490    8.2172 H     932  UNL932      0.1146
   3728 H          24.6148    3.1809    7.3684 H     932  UNL932      0.1146
   3729 N          24.1586    3.9340    9.9643 N.3   933  UNL933     -0.3437
   3730 H          23.7169    3.5066   10.7770 H     933  UNL933      0.1146
   3731 H          24.8842    4.5490   10.3299 H     933  UNL933      0.1146
   3732 H          24.6461    3.1809    9.4810 H     933  UNL933      0.1146
   3733 N          24.1586    3.9340   12.0769 N.3   934  UNL934     -0.3437
   3734 H          23.7169    3.5066   12.8897 H     934  UNL934      0.1146
   3735 H          24.8842    4.5490   12.4425 H     934  UNL934      0.1146
   3736 H          24.6461    3.1809   11.5937 H     934  UNL934      0.1146
   3737 N          24.1586    3.9340   14.1896 N.3   935  UNL935     -0.3437
   3738 H          23.7169    3.5066   15.0024 H     935  UNL935      0.1146
   3739 H          24.8842    4.5490   14.5552 H     935  UNL935      0.1146
   3740 H          24.6461    3.1809   13.7064 H     935  UNL935      0.1146
   3741 N          24.1898    3.9340   16.3023 N.3   936  UNL936     -0.3437
   3742 H          23.7481    3.5066   17.1150 H     936  UNL936      0.1146
   3743 H          24.9154    4.5490   16.6679 H     936  UNL936      0.1146
   3744 H          24.6773    3.1809   15.8190 H     936  UNL936      0.1146
   3745 N          24.1429    3.9892   18.7017 N.3   937  UNL937     -0.3437
   3746 H          23.7012    3.1174   18.4132 H     937  UNL937      0.1146
   3747 H          24.8685    3.7292   19.3683 H     937  UNL937      0.1146
   3748 H          24.6304    4.3425   17.8796 H     937  UNL937      0.1146
   3749 N          24.0961    1.8139   20.4810 N.3   938  UNL938     -0.3437
   3750 H          23.6544    2.1045   21.3521 H     938  UNL938      0.1146
   3751 H          24.8217    2.5035   20.2903 H     938  UNL938      0.1146
   3752 H          24.5836    0.9438   20.6899 H     938  UNL938      0.1146
   3753 N          24.2080    6.1742   -0.6701 N.3   939  UNL939     -0.3437
   3754 H          23.4994    5.7201   -0.0955 H     939  UNL939      0.1146
   3755 H          24.6661    6.8547   -0.0655 H     939  UNL939      0.1146
   3756 H          24.9072    5.4604   -0.8699 H     939  UNL939      0.1146
   3757 N          24.1273    6.1898    1.5097 N.3   940  UNL940     -0.3437
   3758 H          23.6856    5.7624    2.3225 H     940  UNL940      0.1146
   3759 H          24.8529    6.8048    1.8753 H     940  UNL940      0.1146
   3760 H          24.6148    5.4367    1.0265 H     940  UNL940      0.1146
   3761 N          24.1586    6.1937    3.6263 N.3   941  UNL941     -0.3437
   3762 H          23.7169    5.7663    4.4391 H     941  UNL941      0.1146
   3763 H          24.8842    6.8087    3.9919 H     941  UNL941      0.1146
   3764 H          24.6461    5.4406    3.1431 H     941  UNL941      0.1146
   3765 N          24.1586    6.1898    5.7390 N.3   942  UNL942     -0.3437
   3766 H          23.7169    5.7624    6.5517 H     942  UNL942      0.1146
   3767 H          24.8842    6.8048    6.1046 H     942  UNL942      0.1146
   3768 H          24.6461    5.4367    5.2557 H     942  UNL942      0.1146
   3769 N          24.1586    6.1898    7.8516 N.3   943  UNL943     -0.3437
   3770 H          23.7169    5.7624    8.6644 H     943  UNL943      0.1146
   3771 H          24.8842    6.8048    8.2172 H     943  UNL943      0.1146
   3772 H          24.6461    5.4367    7.3684 H     943  UNL943      0.1146
   3773 N          24.1586    6.1898    9.9643 N.3   944  UNL944     -0.3437
   3774 H          23.7169    5.7624   10.7770 H     944  UNL944      0.1146
   3775 H          24.8842    6.8048   10.3299 H     944  UNL944      0.1146
   3776 H          24.6461    5.4367    9.4810 H     944  UNL944      0.1146
   3777 N          24.1586    6.1898   12.0769 N.3   945  UNL945     -0.3437
   3778 H          23.7169    5.7624   12.8897 H     945  UNL945      0.1146
   3779 H          24.8842    6.8048   12.4425 H     945  UNL945      0.1146
   3780 H          24.6461    5.4367   11.5937 H     945  UNL945      0.1146
   3781 N          24.1273    6.1898   14.1896 N.3   946  UNL946     -0.3437
   3782 H          23.6856    5.7624   15.0024 H     946  UNL946      0.1146
   3783 H          24.8529    6.8048   14.5552 H     946  UNL946      0.1146
   3784 H          24.6148    5.4367   13.7064 H     946  UNL946      0.1146
   3785 N          24.1898    6.1898   16.3023 N.3   947  UNL947     -0.3437
   3786 H          23.7481    5.7624   17.1150 H     947  UNL947      0.1146
   3787 H          24.9154    6.8048   16.6679 H     947  UNL947      0.1146
   3788 H          24.6773    5.4367   15.8190 H     947  UNL947      0.1146
   3789 N          24.1429    5.8982   18.4227 N.3   948  UNL948     -0.3437
   3790 H          23.7012    6.6300   18.9775 H     948  UNL948      0.1146
   3791 H          24.8685    6.3596   17.8759 H     948  UNL948      0.1146
   3792 H          24.6304    5.2981   19.0865 H     948  UNL948      0.1146
   3793 N          24.1429    6.0229   21.4810 N.3   949  UNL949     -0.3437
   3794 H          23.7012    6.3135   22.3521 H     949  UNL949      0.1146
   3795 H          24.8685    6.7125   21.2903 H     949  UNL949      0.1146
   3796 H          24.6304    5.1528   21.6899 H     949  UNL949      0.1146
   3797 N          24.1586    8.4456   -0.5971 N.3   950  UNL950     -0.3437
   3798 H          23.7169    8.0182    0.2157 H     950  UNL950      0.1146
   3799 H          24.8842    9.0606   -0.2315 H     950  UNL950      0.1146
   3800 H          24.6461    7.6925   -1.0803 H     950  UNL950      0.1146
   3801 N          24.1586    8.4456    1.5136 N.3   951  UNL951     -0.3437
   3802 H          23.7169    8.0182    2.3264 H     951  UNL951      0.1146
   3803 H          24.8842    9.0606    1.8792 H     951  UNL951      0.1146
   3804 H          24.6461    7.6925    1.0304 H     951  UNL951      0.1146
   3805 N          24.1586    8.4456    3.6263 N.3   952  UNL952     -0.3437
   3806 H          23.7169    8.0182    4.4391 H     952  UNL952      0.1146
   3807 H          24.8842    9.0606    3.9919 H     952  UNL952      0.1146
   3808 H          24.6461    7.6925    3.1431 H     952  UNL952      0.1146
   3809 N          24.1586    8.4456    5.7390 N.3   953  UNL953     -0.3437
   3810 H          23.7169    8.0182    6.5517 H     953  UNL953      0.1146
   3811 H          24.8842    9.0606    6.1046 H     953  UNL953      0.1146
   3812 H          24.6461    7.6925    5.2557 H     953  UNL953      0.1146
   3813 N          24.1586    8.4456    7.8516 N.3   954  UNL954     -0.3437
   3814 H          23.7169    8.0182    8.6644 H     954  UNL954      0.1146
   3815 H          24.8842    9.0606    8.2172 H     954  UNL954      0.1146
   3816 H          24.6461    7.6925    7.3684 H     954  UNL954      0.1146
   3817 N          24.1586    8.4456    9.9643 N.3   955  UNL955     -0.3437
   3818 H          23.7169    8.0182   10.7770 H     955  UNL955      0.1146
   3819 H          24.8842    9.0606   10.3299 H     955  UNL955      0.1146
   3820 H          24.6461    7.6925    9.4810 H     955  UNL955      0.1146
   3821 N          24.1586    8.4456   12.0769 N.3   956  UNL956     -0.3437
   3822 H          23.7169    8.0182   12.8897 H     956  UNL956      0.1146
   3823 H          24.8842    9.0606   12.4425 H     956  UNL956      0.1146
   3824 H          24.6461    7.6925   11.5937 H     956  UNL956      0.1146
   3825 N          24.1586    8.4456   14.1896 N.3   957  UNL957     -0.3437
   3826 H          23.7169    8.0182   15.0024 H     957  UNL957      0.1146
   3827 H          24.8842    9.0606   14.5552 H     957  UNL957      0.1146
   3828 H          24.6461    7.6925   13.7064 H     957  UNL957      0.1146
   3829 N          24.1586    8.4456   16.3023 N.3   958  UNL958     -0.3437
   3830 H          23.7169    8.0182   17.1150 H     958  UNL958      0.1146
   3831 H          24.8842    9.0607   16.6679 H     958  UNL958      0.1146
   3832 H          24.6461    7.6925   15.8190 H     958  UNL958      0.1146
   3833 N          24.1898    8.4456   18.4149 N.3   959  UNL959     -0.3437
   3834 H          23.7481    8.0182   19.2277 H     959  UNL959      0.1146
   3835 H          24.9154    9.0607   18.7805 H     959  UNL959      0.1146
   3836 H          24.6773    7.6925   17.9317 H     959  UNL959      0.1146
   3837 N          24.1429    8.5008   20.8143 N.3   960  UNL960     -0.3437
   3838 H          23.7012    7.6290   20.5258 H     960  UNL960      0.1146
   3839 H          24.8685    8.2409   21.4809 H     960  UNL960      0.1146
   3840 H          24.6304    8.8542   19.9922 H     960  UNL960      0.1146
   3841 N          24.1898   10.7586   -0.3181 N.3   961  UNL961     -0.3437
   3842 H          23.7481    9.8868   -0.6066 H     961  UNL961      0.1146
   3843 H          24.9154   10.4986    0.3485 H     961  UNL961      0.1146
   3844 H          24.6773   11.1119   -1.1402 H     961  UNL961      0.1146
   3845 N          24.1273   10.6975    1.5176 N.3   962  UNL962     -0.3437
   3846 H          23.6856   10.2701    2.3303 H     962  UNL962      0.1146
   3847 H          24.8529   11.3126    1.8832 H     962  UNL962      0.1146
   3848 H          24.6148    9.9444    1.0343 H     962  UNL962      0.1146
   3849 N          24.1586   10.7014    3.6263 N.3   963  UNL963     -0.3437
   3850 H          23.7169   10.2740    4.4391 H     963  UNL963      0.1146
   3851 H          24.8842   11.3165    3.9919 H     963  UNL963      0.1146
   3852 H          24.6461    9.9483    3.1431 H     963  UNL963      0.1146
   3853 N          24.1898   10.7014    5.7390 N.3   964  UNL964     -0.3437
   3854 H          23.7481   10.2740    6.5517 H     964  UNL964      0.1146
   3855 H          24.9154   11.3165    6.1046 H     964  UNL964      0.1146
   3856 H          24.6773    9.9483    5.2557 H     964  UNL964      0.1146
   3857 N          24.1586   10.7014    7.8516 N.3   965  UNL965     -0.3437
   3858 H          23.7169   10.2740    8.6644 H     965  UNL965      0.1146
   3859 H          24.8842   11.3165    8.2172 H     965  UNL965      0.1146
   3860 H          24.6461    9.9483    7.3684 H     965  UNL965      0.1146
   3861 N          24.1586   10.7014    9.9643 N.3   966  UNL966     -0.3437
   3862 H          23.7169   10.2740   10.7770 H     966  UNL966      0.1146
   3863 H          24.8842   11.3165   10.3299 H     966  UNL966      0.1146
   3864 H          24.6461    9.9483    9.4810 H     966  UNL966      0.1146
   3865 N          24.1586   10.7014   12.0769 N.3   967  UNL967     -0.3437
   3866 H          23.7169   10.2740   12.8897 H     967  UNL967      0.1146
   3867 H          24.8842   11.3165   12.4425 H     967  UNL967      0.1146
   3868 H          24.6461    9.9483   11.5937 H     967  UNL967      0.1146
   3869 N          24.1586   10.7014   14.1896 N.3   968  UNL968     -0.3437
   3870 H          23.7169   10.2740   15.0024 H     968  UNL968      0.1146
   3871 H          24.8842   11.3165   14.5552 H     968  UNL968      0.1146
   3872 H          24.6461    9.9483   13.7064 H     968  UNL968      0.1146
   3873 N          24.1898   10.7014   16.3023 N.3   969  UNL969     -0.3437
   3874 H          23.7481   10.2740   17.1150 H     969  UNL969      0.1146
   3875 H          24.9154   11.3165   16.6679 H     969  UNL969      0.1146
   3876 H          24.6773    9.9483   15.8190 H     969  UNL969      0.1146
   3877 N          24.1429   10.7566   18.7017 N.3   970  UNL970     -0.3437
   3878 H          23.7012    9.8848   18.4132 H     970  UNL970      0.1146
   3879 H          24.8685   10.4967   19.3683 H     970  UNL970      0.1146
   3880 H          24.6304   11.1100   17.8796 H     970  UNL970      0.1146
   3881 N          24.2852   10.2854   21.6153 N.3   971  UNL971     -0.3437
   3882 H          24.8933   10.3241   22.4321 H     971  UNL971      0.1146
   3883 H          23.4057   10.7144   21.8995 H     971  UNL971      0.1146
   3884 H          24.6965   10.9164   20.9289 H     971  UNL971      0.1146
   3885 N          24.6678   12.7962   -0.4902 N.3   972  UNL972     -0.3437
   3886 H          24.0870   13.0868   -1.2754 H     972  UNL972      0.1146
   3887 H          24.5132   13.4858    0.2439 H     972  UNL972      0.1146
   3888 H          24.2626   11.9261   -0.1480 H     972  UNL972      0.1146
   3889 N          24.4264   12.6818    1.4671 N.3   973  UNL973     -0.3437
   3890 H          24.4579   12.1540    2.3382 H     973  UNL973      0.1146
   3891 H          23.4397   12.8504    1.2764 H     973  UNL973      0.1146
   3892 H          24.8317   13.5931    1.6760 H     973  UNL973      0.1146
   3893 N          24.1898   13.0144    3.9072 N.3   974  UNL974     -0.3437
   3894 H          23.7481   12.1426    3.6187 H     974  UNL974      0.1146
   3895 H          24.9154   12.7545    4.5738 H     974  UNL974      0.1146
   3896 H          24.6773   13.3677    3.0851 H     974  UNL974      0.1146
   3897 N          24.0961   12.9573    5.7468 N.3   975  UNL975     -0.3437
   3898 H          23.6544   12.5299    6.5595 H     975  UNL975      0.1146
   3899 H          24.8217   13.5723    6.1124 H     975  UNL975      0.1146
   3900 H          24.5836   12.2042    5.2635 H     975  UNL975      0.1146
   3901 N          24.1586   12.9573    7.8516 N.3   976  UNL976     -0.3437
   3902 H          23.7169   12.5299    8.6644 H     976  UNL976      0.1146
   3903 H          24.8842   13.5723    8.2172 H     976  UNL976      0.1146
   3904 H          24.6461   12.2042    7.3684 H     976  UNL976      0.1146
   3905 N          24.1586   12.9612    9.9643 N.3   977  UNL977     -0.3437
   3906 H          23.7169   12.5338   10.7770 H     977  UNL977      0.1146
   3907 H          24.8842   13.5762   10.3299 H     977  UNL977      0.1146
   3908 H          24.6461   12.2081    9.4810 H     977  UNL977      0.1146
   3909 N          24.1898   12.9573   12.0769 N.3   978  UNL978     -0.3437
   3910 H          23.7481   12.5299   12.8897 H     978  UNL978      0.1146
   3911 H          24.9154   13.5723   12.4425 H     978  UNL978      0.1146
   3912 H          24.6773   12.2042   11.5937 H     978  UNL978      0.1146
   3913 N          24.1586   12.9573   14.1896 N.3   979  UNL979     -0.3437
   3914 H          23.7169   12.5299   15.0024 H     979  UNL979      0.1146
   3915 H          24.8842   13.5723   14.5552 H     979  UNL979      0.1146
   3916 H          24.6461   12.2042   13.7064 H     979  UNL979      0.1146
   3917 N          24.1898   12.9573   16.3023 N.3   980  UNL980     -0.3437
   3918 H          23.7481   12.5299   17.1150 H     980  UNL980      0.1146
   3919 H          24.9154   13.5723   16.6679 H     980  UNL980      0.1146
   3920 H          24.6773   12.2042   15.8190 H     980  UNL980      0.1146
   3921 N          24.1117   13.0124   18.7017 N.3   981  UNL981     -0.3437
   3922 H          23.6700   12.1406   18.4132 H     981  UNL981      0.1146
   3923 H          24.8373   12.7525   19.3683 H     981  UNL981      0.1146
   3924 H          24.5992   13.3658   17.8796 H     981  UNL981      0.1146
   3925 N          24.4733   12.6798   21.4810 N.3   982  UNL982     -0.3437
   3926 H          24.5048   12.1520   22.3521 H     982  UNL982      0.1146
   3927 H          23.4865   12.8484   21.2903 H     982  UNL982      0.1146
   3928 H          24.8786   13.5911   21.6899 H     982  UNL982      0.1146
   3929 N          23.5217   15.0076   -0.6437 N.3   983  UNL983     -0.3437
   3930 H          23.7807   14.5467    0.2274 H     983  UNL983      0.1146
   3931 H          22.5605   14.7282   -0.8344 H     983  UNL983      0.1146
   3932 H          23.4881   16.0044   -0.4348 H     983  UNL983      0.1146
   3933 N          23.0438   15.0442    1.6727 N.3   984  UNL984     -0.3437
   3934 H          23.3666   15.3348    2.5945 H     984  UNL984      0.1146
   3935 H          23.4085   15.7338    1.0170 H     984  UNL984      0.1146
   3936 H          23.5320   14.1741    1.4655 H     984  UNL984      0.1146
   3937 N          24.1742   15.9098    3.6660 N.3   985  UNL985     -0.3437
   3938 H          23.7325   16.7396    4.0594 H     985  UNL985      0.1146
   3939 H          24.8998   16.2496    3.0364 H     985  UNL985      0.1146
   3940 H          24.6617   15.4582    4.4385 H     985  UNL985      0.1146
   3941 N          24.1586   16.2839    6.0237 N.3   986  UNL986     -0.3437
   3942 H          23.7169   15.4121    5.7352 H     986  UNL986      0.1146
   3943 H          24.8842   16.0240    6.6903 H     986  UNL986      0.1146
   3944 H          24.6461   16.6372    5.2016 H     986  UNL986      0.1146
   3945 N          24.1273   15.2131    7.8555 N.3   987  UNL987     -0.3437
   3946 H          23.6856   14.7857    8.6683 H     987  UNL987      0.1146
   3947 H          24.8529   15.8281    8.2211 H     987  UNL987      0.1146
   3948 H          24.6148   14.4600    7.3723 H     987  UNL987      0.1146
   3949 N          23.6092   16.0618   10.2490 N.3   988  UNL988     -0.3437
   3950 H          23.6016   16.3524    9.2723 H     988  UNL988      0.1146
   3951 H          23.0522   16.7514   10.7515 H     988  UNL988      0.1146
   3952 H          23.0802   15.1917   10.2872 H     988  UNL988      0.1146
   3953 N          24.5049   16.1627   12.4891 N.3   989  UNL989     -0.3437
   3954 H          24.5861   15.1609   12.3208 H     989  UNL989      0.1146
   3955 H          24.8073   16.6175   11.6288 H     989  UNL989      0.1146
   3956 H          23.5074   16.3536   12.5720 H     989  UNL989      0.1146
   3957 N          24.0961   16.0618   14.1391 N.3   990  UNL990     -0.3437
   3958 H          23.6544   16.3524   15.0102 H     990  UNL990      0.1146
   3959 H          24.8217   16.7514   13.9484 H     990  UNL990      0.1146
   3960 H          24.5836   15.1917   14.3480 H     990  UNL990      0.1146
   3961 N          24.5341   16.2765   16.3467 N.3   991  UNL991     -0.3437
   3962 H          24.6008   15.3959   15.8383 H     991  UNL991      0.1146
   3963 H          23.5388   16.4801   16.4264 H     991  UNL991      0.1146
   3964 H          24.8571   16.0797   17.2929 H     991  UNL991      0.1146
   3965 N          24.1742   15.0792   18.3687 N.3   992  UNL992     -0.3437
   3966 H          23.7325   15.2382   19.2731 H     992  UNL992      0.1146
   3967 H          24.8998   15.7894   18.2817 H     992  UNL992      0.1146
   3968 H          24.6617   14.1878   18.4470 H     992  UNL992      0.1146
   3969 N          23.1429   14.9960   20.9135 N.3   993  UNL993     -0.3437
   3970 H          22.7012   15.1378   20.0062 H     993  UNL993      0.1146
   3971 H          23.8685   14.2959   20.7662 H     993  UNL993      0.1146
   3972 H          23.6304   15.8649   21.1274 H     993  UNL993      0.1146
@<TRIPOS>BOND
     1     1     2    1
     2     1     3    1
     3     1     4    1
     4     5     6    1
     5     5     7    1
     6     5     8    1
     7     9    10    1
     8     9    11    1
     9     9    12    1
    10    13    14    1
    11    13    15    1
    12    13    16    1
    13    17    18    1
    14    17    19    1
    15    17    20    1
    16    21    22    1
    17    21    23    1
    18    21    24    1
    19    25    26    1
    20    25    27    1
    21    25    28    1
    22    29    30    1
    23    29    31    1
    24    29    32    1
    25    33    34    1
    26    33    35    1
    27    33    36    1
    28    37    38    1
    29    37    39    1
    30    37    40    1
    31    41    42    1
    32    41    43    1
    33    41    44    1
    34    45    46    1
    35    45    47    1
    36    45    48    1
    37    49    50    1
    38    49    51    1
    39    49    52    1
    40    53    54    1
    41    53    55    1
    42    53    56    1
    43    57    58    1
    44    57    59    1
    45    57    60    1
    46    61    62    1
    47    61    63    1
    48    61    64    1
    49    65    66    1
    50    65    67    1
    51    65    68    1
    52    69    70    1
    53    69    71    1
    54    69    72    1
    55    73    74    1
    56    73    75    1
    57    73    76    1
    58    77    78    1
    59    77    79    1
    60    77    80    1
    61    81    82    1
    62    81    83    1
    63    81    84    1
    64    85    86    1
    65    85    87    1
    66    85    88    1
    67    89    90    1
    68    89    91    1
    69    89    92    1
    70    93    94    1
    71    93    95    1
    72    93    96    1
    73    97    98    1
    74    97    99    1
    75    97   100    1
    76   101   102    1
    77   101   103    1
    78   101   104    1
    79   105   106    1
    80   105   107    1
    81   105   108    1
    82   109   110    1
    83   109   111    1
    84   109   112    1
    85   113   114    1
    86   113   115    1
    87   113   116    1
    88   117   118    1
    89   117   119    1
    90   117   120    1
    91   121   122    1
    92   121   123    1
    93   121   124    1
    94   125   126    1
    95   125   127    1
    96   125   128    1
    97   129   130    1
    98   129   131    1
    99   129   132    1
   100   133   134    1
   101   133   135    1
   102   133   136    1
   103   137   138    1
   104   137   139    1
   105   137   140    1
   106   141   142    1
   107   141   143    1
   108   141   144    1
   109   145   146    1
   110   145   147    1
   111   145   148    1
   112   149   150    1
   113   149   151    1
   114   149   152    1
   115   153   154    1
   116   153   155    1
   117   153   156    1
   118   157   158    1
   119   157   159    1
   120   157   160    1
   121   161   162    1
   122   161   163    1
   123   161   164    1
   124   165   166    1
   125   165   167    1
   126   165   168    1
   127   169   170    1
   128   169   171    1
   129   169   172    1
   130   173   174    1
   131   173   175    1
   132   173   176    1
   133   177   178    1
   134   177   179    1
   135   177   180    1
   136   181   182    1
   137   181   183    1
   138   181   184    1
   139   185   186    1
   140   185   187    1
   141   185   188    1
   142   189   190    1
   143   189   191    1
   144   189   192    1
   145   193   194    1
   146   193   195    1
   147   193   196    1
   148   197   198    1
   149   197   199    1
   150   197   200    1
   151   201   202    1
   152   201   203    1
   153   201   204    1
   154   205   206    1
   155   205   207    1
   156   205   208    1
   157   209   210    1
   158   209   211    1
   159   209   212    1
   160   213   214    1
   161   213   215    1
   162   213   216    1
   163   217   218    1
   164   217   219    1
   165   217   220    1
   166   221   222    1
   167   221   223    1
   168   221   224    1
   169   225   226    1
   170   225   227    1
   171   225   228    1
   172   229   230    1
   173   229   231    1
   174   229   232    1
   175   233   234    1
   176   233   235    1
   177   233   236    1
   178   237   238    1
   179   237   239    1
   180   237   240    1
   181   241   242    1
   182   241   243    1
   183   241   244    1
   184   245   246    1
   185   245   247    1
   186   245   248    1
   187   249   250    1
   188   249   251    1
   189   249   252    1
   190   253   254    1
   191   253   255    1
   192   253   256    1
   193   257   258    1
   194   257   259    1
   195   257   260    1
   196   261   262    1
   197   261   263    1
   198   261   264    1
   199   265   266    1
   200   265   267    1
   201   265   268    1
   202   269   270    1
   203   269   271    1
   204   269   272    1
   205   273   274    1
   206   273   275    1
   207   273   276    1
   208   277   278    1
   209   277   279    1
   210   277   280    1
   211   281   282    1
   212   281   283    1
   213   281   284    1
   214   285   286    1
   215   285   287    1
   216   285   288    1
   217   289   290    1
   218   289   291    1
   219   289   292    1
   220   293   294    1
   221   293   295    1
   222   293   296    1
   223   297   298    1
   224   297   299    1
   225   297   300    1
   226   301   302    1
   227   301   303    1
   228   301   304    1
   229   305   306    1
   230   305   307    1
   231   305   308    1
   232   309   310    1
   233   309   311    1
   234   309   312    1
   235   313   314    1
   236   313   315    1
   237   313   316    1
   238   317   318    1
   239   317   319    1
   240   317   320    1
   241   321   322    1
   242   321   323    1
   243   321   324    1
   244   325   326    1
   245   325   327    1
   246   325   328    1
   247   329   330    1
   248   329   331    1
   249   329   332    1
   250   333   334    1
   251   333   335    1
   252   333   336    1
   253   337   338    1
   254   337   339    1
   255   337   340    1
   256   341   342    1
   257   341   343    1
   258   341   344    1
   259   345   346    1
   260   345   347    1
   261   345   348    1
   262   349   350    1
   263   349   351    1
   264   349   352    1
   265   353   354    1
   266   353   355    1
   267   353   356    1
   268   357   358    1
   269   357   359    1
   270   357   360    1
   271   361   362    1
   272   361   363    1
   273   361   364    1
   274   365   366    1
   275   365   367    1
   276   365   368    1
   277   369   370    1
   278   369   371    1
   279   369   372    1
   280   373   374    1
   281   373   375    1
   282   373   376    1
   283   377   378    1
   284   377   379    1
   285   377   380    1
   286   381   382    1
   287   381   383    1
   288   381   384    1
   289   385   386    1
   290   385   387    1
   291   385   388    1
   292   389   390    1
   293   389   391    1
   294   389   392    1
   295   393   394    1
   296   393   395    1
   297   393   396    1
   298   397   398    1
   299   397   399    1
   300   397   400    1
   301   401   402    1
   302   401   403    1
   303   401   404    1
   304   405   406    1
   305   405   407    1
   306   405   408    1
   307   409   410    1
   308   409   411    1
   309   409   412    1
   310   413   414    1
   311   413   415    1
   312   413   416    1
   313   417   418    1
   314   417   419    1
   315   417   420    1
   316   421   422    1
   317   421   423    1
   318   421   424    1
   319   425   426    1
   320   425   427    1
   321   425   428    1
   322   429   430    1
   323   429   431    1
   324   429   432    1
   325   433   434    1
   326   433   435    1
   327   433   436    1
   328   437   438    1
   329   437   439    1
   330   437   440    1
   331   441   442    1
   332   441   443    1
   333   441   444    1
   334   445   446    1
   335   445   447    1
   336   445   448    1
   337   449   450    1
   338   449   451    1
   339   449   452    1
   340   453   454    1
   341   453   455    1
   342   453   456    1
   343   457   458    1
   344   457   459    1
   345   457   460    1
   346   461   462    1
   347   461   463    1
   348   461   464    1
   349   465   466    1
   350   465   467    1
   351   465   468    1
   352   469   470    1
   353   469   471    1
   354   469   472    1
   355   473   474    1
   356   473   475    1
   357   473   476    1
   358   477   478    1
   359   477   479    1
   360   477   480    1
   361   481   482    1
   362   481   483    1
   363   481   484    1
   364   485   486    1
   365   485   487    1
   366   485   488    1
   367   489   490    1
   368   489   491    1
   369   489   492    1
   370   493   494    1
   371   493   495    1
   372   493   496    1
   373   497   498    1
   374   497   499    1
   375   497   500    1
   376   501   502    1
   377   501   503    1
   378   501   504    1
   379   505   506    1
   380   505   507    1
   381   505   508    1
   382   509   510    1
   383   509   511    1
   384   509   512    1
   385   513   514    1
   386   513   515    1
   387   513   516    1
   388   517   518    1
   389   517   519    1
   390   517   520    1
   391   521   522    1
   392   521   523    1
   393   521   524    1
   394   525   526    1
   395   525   527    1
   396   525   528    1
   397   529   530    1
   398   529   531    1
   399   529   532    1
   400   533   534    1
   401   533   535    1
   402   533   536    1
   403   537   538    1
   404   537   539    1
   405   537   540    1
   406   541   542    1
   407   541   543    1
   408   541   544    1
   409   545   546    1
   410   545   547    1
   411   545   548    1
   412   549   550    1
   413   549   551    1
   414   549   552    1
   415   553   554    1
   416   553   555    1
   417   553   556    1
   418   557   558    1
   419   557   559    1
   420   557   560    1
   421   561   562    1
   422   561   563    1
   423   561   564    1
   424   565   566    1
   425   565   567    1
   426   565   568    1
   427   569   570    1
   428   569   571    1
   429   569   572    1
   430   573   574    1
   431   573   575    1
   432   573   576    1
   433   577   578    1
   434   577   579    1
   435   577   580    1
   436   581   582    1
   437   581   583    1
   438   581   584    1
   439   585   586    1
   440   585   587    1
   441   585   588    1
   442   589   590    1
   443   589   591    1
   444   589   592    1
   445   593   594    1
   446   593   595    1
   447   593   596    1
   448   597   598    1
   449   597   599    1
   450   597   600    1
   451   601   602    1
   452   601   603    1
   453   601   604    1
   454   605   606    1
   455   605   607    1
   456   605   608    1
   457   609   610    1
   458   609   611    1
   459   609   612    1
   460   613   614    1
   461   613   615    1
   462   613   616    1
   463   617   618    1
   464   617   619    1
   465   617   620    1
   466   621   622    1
   467   621   623    1
   468   621   624    1
   469   625   626    1
   470   625   627    1
   471   625   628    1
   472   629   630    1
   473   629   631    1
   474   629   632    1
   475   633   634    1
   476   633   635    1
   477   633   636    1
   478   637   638    1
   479   637   639    1
   480   637   640    1
   481   641   642    1
   482   641   643    1
   483   641   644    1
   484   645   646    1
   485   645   647    1
   486   645   648    1
   487   649   650    1
   488   649   651    1
   489   649   652    1
   490   653   654    1
   491   653   655    1
   492   653   656    1
   493   657   658    1
   494   657   659    1
   495   657   660    1
   496   661   662    1
   497   661   663    1
   498   661   664    1
   499   665   666    1
   500   665   667    1
   501   665   668    1
   502   669   670    1
   503   669   671    1
   504   669   672    1
   505   673   674    1
   506   673   675    1
   507   673   676    1
   508   677   678    1
   509   677   679    1
   510   677   680    1
   511   681   682    1
   512   681   683    1
   513   681   684    1
   514   685   686    1
   515   685   687    1
   516   685   688    1
   517   689   690    1
   518   689   691    1
   519   689   692    1
   520   693   694    1
   521   693   695    1
   522   693   696    1
   523   697   698    1
   524   697   699    1
   525   697   700    1
   526   701   702    1
   527   701   703    1
   528   701   704    1
   529   705   706    1
   530   705   707    1
   531   705   708    1
   532   709   710    1
   533   709   711    1
   534   709   712    1
   535   713   714    1
   536   713   715    1
   537   713   716    1
   538   717   718    1
   539   717   719    1
   540   717   720    1
   541   721   722    1
   542   721   723    1
   543   721   724    1
   544   725   726    1
   545   725   727    1
   546   725   728    1
   547   729   730    1
   548   729   731    1
   549   729   732    1
   550   733   734    1
   551   733   735    1
   552   733   736    1
   553   737   738    1
   554   737   739    1
   555   737   740    1
   556   741   742    1
   557   741   743    1
   558   741   744    1
   559   745   746    1
   560   745   747    1
   561   745   748    1
   562   749   750    1
   563   749   751    1
   564   749   752    1
   565   753   754    1
   566   753   755    1
   567   753   756    1
   568   757   758    1
   569   757   759    1
   570   757   760    1
   571   761   762    1
   572   761   763    1
   573   761   764    1
   574   765   766    1
   575   765   767    1
   576   765   768    1
   577   769   770    1
   578   769   771    1
   579   769   772    1
   580   773   774    1
   581   773   775    1
   582   773   776    1
   583   777   778    1
   584   777   779    1
   585   777   780    1
   586   781   782    1
   587   781   783    1
   588   781   784    1
   589   785   786    1
   590   785   787    1
   591   785   788    1
   592   789   790    1
   593   789   791    1
   594   789   792    1
   595   793   794    1
   596   793   795    1
   597   793   796    1
   598   797   798    1
   599   797   799    1
   600   797   800    1
   601   801   802    1
   602   801   803    1
   603   801   804    1
   604   805   806    1
   605   805   807    1
   606   805   808    1
   607   809   810    1
   608   809   811    1
   609   809   812    1
   610   813   814    1
   611   813   815    1
   612   813   816    1
   613   817   818    1
   614   817   819    1
   615   817   820    1
   616   821   822    1
   617   821   823    1
   618   821   824    1
   619   825   826    1
   620   825   827    1
   621   825   828    1
   622   829   830    1
   623   829   831    1
   624   829   832    1
   625   833   834    1
   626   833   835    1
   627   833   836    1
   628   837   838    1
   629   837   839    1
   630   837   840    1
   631   841   842    1
   632   841   843    1
   633   841   844    1
   634   845   846    1
   635   845   847    1
   636   845   848    1
   637   849   850    1
   638   849   851    1
   639   849   852    1
   640   853   854    1
   641   853   855    1
   642   853   856    1
   643   857   858    1
   644   857   859    1
   645   857   860    1
   646   861   862    1
   647   861   863    1
   648   861   864    1
   649   865   866    1
   650   865   867    1
   651   865   868    1
   652   869   870    1
   653   869   871    1
   654   869   872    1
   655   873   874    1
   656   873   875    1
   657   873   876    1
   658   877   878    1
   659   877   879    1
   660   877   880    1
   661   881   882    1
   662   881   883    1
   663   881   884    1
   664   885   886    1
   665   885   887    1
   666   885   888    1
   667   889   890    1
   668   889   891    1
   669   889   892    1
   670   893   894    1
   671   893   895    1
   672   893   896    1
   673   897   898    1
   674   897   899    1
   675   897   900    1
   676   901   902    1
   677   901   903    1
   678   901   904    1
   679   905   906    1
   680   905   907    1
   681   905   908    1
   682   909   910    1
   683   909   911    1
   684   909   912    1
   685   913   914    1
   686   913   915    1
   687   913   916    1
   688   917   918    1
   689   917   919    1
   690   917   920    1
   691   921   922    1
   692   921   923    1
   693   921   924    1
   694   925   926    1
   695   925   927    1
   696   925   928    1
   697   929   930    1
   698   929   931    1
   699   929   932    1
   700   933   934    1
   701   933   935    1
   702   933   936    1
   703   937   938    1
   704   937   939    1
   705   937   940    1
   706   941   942    1
   707   941   943    1
   708   941   944    1
   709   945   946    1
   710   945   947    1
   711   945   948    1
   712   949   950    1
   713   949   951    1
   714   949   952    1
   715   953   954    1
   716   953   955    1
   717   953   956    1
   718   957   958    1
   719   957   959    1
   720   957   960    1
   721   961   962    1
   722   961   963    1
   723   961   964    1
   724   965   966    1
   725   965   967    1
   726   965   968    1
   727   969   970    1
   728   969   971    1
   729   969   972    1
   730   973   974    1
   731   973   975    1
   732   973   976    1
   733   977   978    1
   734   977   979    1
   735   977   980    1
   736   981   982    1
   737   981   983    1
   738   981   984    1
   739   985   986    1
   740   985   987    1
   741   985   988    1
   742   989   990    1
   743   989   991    1
   744   989   992    1
   745   993   994    1
   746   993   995    1
   747   993   996    1
   748   997   998    1
   749   997   999    1
   750   997  1000    1
   751  1001  1002    1
   752  1001  1003    1
   753  1001  1004    1
   754  1005  1006    1
   755  1005  1007    1
   756  1005  1008    1
   757  1009  1010    1
   758  1009  1011    1
   759  1009  1012    1
   760  1013  1014    1
   761  1013  1015    1
   762  1013  1016    1
   763  1017  1018    1
   764  1017  1019    1
   765  1017  1020    1
   766  1021  1022    1
   767  1021  1023    1
   768  1021  1024    1
   769  1025  1026    1
   770  1025  1027    1
   771  1025  1028    1
   772  1029  1030    1
   773  1029  1031    1
   774  1029  1032    1
   775  1033  1034    1
   776  1033  1035    1
   777  1033  1036    1
   778  1037  1038    1
   779  1037  1039    1
   780  1037  1040    1
   781  1041  1042    1
   782  1041  1043    1
   783  1041  1044    1
   784  1045  1046    1
   785  1045  1047    1
   786  1045  1048    1
   787  1049  1050    1
   788  1049  1051    1
   789  1049  1052    1
   790  1053  1054    1
   791  1053  1055    1
   792  1053  1056    1
   793  1057  1058    1
   794  1057  1059    1
   795  1057  1060    1
   796  1061  1062    1
   797  1061  1063    1
   798  1061  1064    1
   799  1065  1066    1
   800  1065  1067    1
   801  1065  1068    1
   802  1069  1070    1
   803  1069  1071    1
   804  1069  1072    1
   805  1073  1074    1
   806  1073  1075    1
   807  1073  1076    1
   808  1077  1078    1
   809  1077  1079    1
   810  1077  1080    1
   811  1081  1082    1
   812  1081  1083    1
   813  1081  1084    1
   814  1085  1086    1
   815  1085  1087    1
   816  1085  1088    1
   817  1089  1090    1
   818  1089  1091    1
   819  1089  1092    1
   820  1093  1094    1
   821  1093  1095    1
   822  1093  1096    1
   823  1097  1098    1
   824  1097  1099    1
   825  1097  1100    1
   826  1101  1102    1
   827  1101  1103    1
   828  1101  1104    1
   829  1105  1106    1
   830  1105  1107    1
   831  1105  1108    1
   832  1109  1110    1
   833  1109  1111    1
   834  1109  1112    1
   835  1113  1114    1
   836  1113  1115    1
   837  1113  1116    1
   838  1117  1118    1
   839  1117  1119    1
   840  1117  1120    1
   841  1121  1122    1
   842  1121  1123    1
   843  1121  1124    1
   844  1125  1126    1
   845  1125  1127    1
   846  1125  1128    1
   847  1129  1130    1
   848  1129  1131    1
   849  1129  1132    1
   850  1133  1134    1
   851  1133  1135    1
   852  1133  1136    1
   853  1137  1138    1
   854  1137  1139    1
   855  1137  1140    1
   856  1141  1142    1
   857  1141  1143    1
   858  1141  1144    1
   859  1145  1146    1
   860  1145  1147    1
   861  1145  1148    1
   862  1149  1150    1
   863  1149  1151    1
   864  1149  1152    1
   865  1153  1154    1
   866  1153  1155    1
   867  1153  1156    1
   868  1157  1158    1
   869  1157  1159    1
   870  1157  1160    1
   871  1161  1162    1
   872  1161  1163    1
   873  1161  1164    1
   874  1165  1166    1
   875  1165  1167    1
   876  1165  1168    1
   877  1169  1170    1
   878  1169  1171    1
   879  1169  1172    1
   880  1173  1174    1
   881  1173  1175    1
   882  1173  1176    1
   883  1177  1178    1
   884  1177  1179    1
   885  1177  1180    1
   886  1181  1182    1
   887  1181  1183    1
   888  1181  1184    1
   889  1185  1186    1
   890  1185  1187    1
   891  1185  1188    1
   892  1189  1190    1
   893  1189  1191    1
   894  1189  1192    1
   895  1193  1194    1
   896  1193  1195    1
   897  1193  1196    1
   898  1197  1198    1
   899  1197  1199    1
   900  1197  1200    1
   901  1201  1202    1
   902  1201  1203    1
   903  1201  1204    1
   904  1205  1206    1
   905  1205  1207    1
   906  1205  1208    1
   907  1209  1210    1
   908  1209  1211    1
   909  1209  1212    1
   910  1213  1214    1
   911  1213  1215    1
   912  1213  1216    1
   913  1217  1218    1
   914  1217  1219    1
   915  1217  1220    1
   916  1221  1222    1
   917  1221  1223    1
   918  1221  1224    1
   919  1225  1226    1
   920  1225  1227    1
   921  1225  1228    1
   922  1229  1230    1
   923  1229  1231    1
   924  1229  1232    1
   925  1233  1234    1
   926  1233  1235    1
   927  1233  1236    1
   928  1237  1238    1
   929  1237  1239    1
   930  1237  1240    1
   931  1241  1242    1
   932  1241  1243    1
   933  1241  1244    1
   934  1245  1246    1
   935  1245  1247    1
   936  1245  1248    1
   937  1249  1250    1
   938  1249  1251    1
   939  1249  1252    1
   940  1253  1254    1
   941  1253  1255    1
   942  1253  1256    1
   943  1257  1258    1
   944  1257  1259    1
   945  1257  1260    1
   946  1261  1262    1
   947  1261  1263    1
   948  1261  1264    1
   949  1265  1266    1
   950  1265  1267    1
   951  1265  1268    1
   952  1269  1270    1
   953  1269  1271    1
   954  1269  1272    1
   955  1273  1274    1
   956  1273  1275    1
   957  1273  1276    1
   958  1277  1278    1
   959  1277  1279    1
   960  1277  1280    1
   961  1281  1282    1
   962  1281  1283    1
   963  1281  1284    1
   964  1285  1286    1
   965  1285  1287    1
   966  1285  1288    1
   967  1289  1290    1
   968  1289  1291    1
   969  1289  1292    1
   970  1293  1294    1
   971  1293  1295    1
   972  1293  1296    1
   973  1297  1298    1
   974  1297  1299    1
   975  1297  1300    1
   976  1301  1302    1
   977  1301  1303    1
   978  1301  1304    1
   979  1305  1306    1
   980  1305  1307    1
   981  1305  1308    1
   982  1309  1310    1
   983  1309  1311    1
   984  1309  1312    1
   985  1313  1314    1
   986  1313  1315    1
   987  1313  1316    1
   988  1317  1318    1
   989  1317  1319    1
   990  1317  1320    1
   991  1321  1322    1
   992  1321  1323    1
   993  1321  1324    1
   994  1325  1326    1
   995  1325  1327    1
   996  1325  1328    1
   997  1329  1330    1
   998  1329  1331    1
   999  1329  1332    1
  1000  1333  1334    1
  1001  1333  1335    1
  1002  1333  1336    1
  1003  1337  1338    1
  1004  1337  1339    1
  1005  1337  1340    1
  1006  1341  1342    1
  1007  1341  1343    1
  1008  1341  1344    1
  1009  1345  1346    1
  1010  1345  1347    1
  1011  1345  1348    1
  1012  1349  1350    1
  1013  1349  1351    1
  1014  1349  1352    1
  1015  1353  1354    1
  1016  1353  1355    1
  1017  1353  1356    1
  1018  1357  1358    1
  1019  1357  1359    1
  1020  1357  1360    1
  1021  1361  1362    1
  1022  1361  1363    1
  1023  1361  1364    1
  1024  1365  1366    1
  1025  1365  1367    1
  1026  1365  1368    1
  1027  1369  1370    1
  1028  1369  1371    1
  1029  1369  1372    1
  1030  1373  1374    1
  1031  1373  1375    1
  1032  1373  1376    1
  1033  1377  1378    1
  1034  1377  1379    1
  1035  1377  1380    1
  1036  1381  1382    1
  1037  1381  1383    1
  1038  1381  1384    1
  1039  1385  1386    1
  1040  1385  1387    1
  1041  1385  1388    1
  1042  1389  1390    1
  1043  1389  1391    1
  1044  1389  1392    1
  1045  1393  1394    1
  1046  1393  1395    1
  1047  1393  1396    1
  1048  1397  1398    1
  1049  1397  1399    1
  1050  1397  1400    1
  1051  1401  1402    1
  1052  1401  1403    1
  1053  1401  1404    1
  1054  1405  1406    1
  1055  1405  1407    1
  1056  1405  1408    1
  1057  1409  1410    1
  1058  1409  1411    1
  1059  1409  1412    1
  1060  1413  1414    1
  1061  1413  1415    1
  1062  1413  1416    1
  1063  1417  1418    1
  1064  1417  1419    1
  1065  1417  1420    1
  1066  1421  1422    1
  1067  1421  1423    1
  1068  1421  1424    1
  1069  1425  1426    1
  1070  1425  1427    1
  1071  1425  1428    1
  1072  1429  1430    1
  1073  1429  1431    1
  1074  1429  1432    1
  1075  1433  1434    1
  1076  1433  1435    1
  1077  1433  1436    1
  1078  1437  1438    1
  1079  1437  1439    1
  1080  1437  1440    1
  1081  1441  1442    1
  1082  1441  1443    1
  1083  1441  1444    1
  1084  1445  1446    1
  1085  1445  1447    1
  1086  1445  1448    1
  1087  1449  1450    1
  1088  1449  1451    1
  1089  1449  1452    1
  1090  1453  1454    1
  1091  1453  1455    1
  1092  1453  1456    1
  1093  1457  1458    1
  1094  1457  1459    1
  1095  1457  1460    1
  1096  1461  1462    1
  1097  1461  1463    1
  1098  1461  1464    1
  1099  1465  1466    1
  1100  1465  1467    1
  1101  1465  1468    1
  1102  1469  1470    1
  1103  1469  1471    1
  1104  1469  1472    1
  1105  1473  1474    1
  1106  1473  1475    1
  1107  1473  1476    1
  1108  1477  1478    1
  1109  1477  1479    1
  1110  1477  1480    1
  1111  1481  1482    1
  1112  1481  1483    1
  1113  1481  1484    1
  1114  1485  1486    1
  1115  1485  1487    1
  1116  1485  1488    1
  1117  1489  1490    1
  1118  1489  1491    1
  1119  1489  1492    1
  1120  1493  1494    1
  1121  1493  1495    1
  1122  1493  1496    1
  1123  1497  1498    1
  1124  1497  1499    1
  1125  1497  1500    1
  1126  1501  1502    1
  1127  1501  1503    1
  1128  1501  1504    1
  1129  1505  1506    1
  1130  1505  1507    1
  1131  1505  1508    1
  1132  1509  1510    1
  1133  1509  1511    1
  1134  1509  1512    1
  1135  1513  1514    1
  1136  1513  1515    1
  1137  1513  1516    1
  1138  1517  1518    1
  1139  1517  1519    1
  1140  1517  1520    1
  1141  1521  1522    1
  1142  1521  1523    1
  1143  1521  1524    1
  1144  1525  1526    1
  1145  1525  1527    1
  1146  1525  1528    1
  1147  1529  1530    1
  1148  1529  1531    1
  1149  1529  1532    1
  1150  1533  1534    1
  1151  1533  1535    1
  1152  1533  1536    1
  1153  1537  1538    1
  1154  1537  1539    1
  1155  1537  1540    1
  1156  1541  1542    1
  1157  1541  1543    1
  1158  1541  1544    1
  1159  1545  1546    1
  1160  1545  1547    1
  1161  1545  1548    1
  1162  1549  1550    1
  1163  1549  1551    1
  1164  1549  1552    1
  1165  1553  1554    1
  1166  1553  1555    1
  1167  1553  1556    1
  1168  1557  1558    1
  1169  1557  1559    1
  1170  1557  1560    1
  1171  1561  1562    1
  1172  1561  1563    1
  1173  1561  1564    1
  1174  1565  1566    1
  1175  1565  1567    1
  1176  1565  1568    1
  1177  1569  1570    1
  1178  1569  1571    1
  1179  1569  1572    1
  1180  1573  1574    1
  1181  1573  1575    1
  1182  1573  1576    1
  1183  1577  1578    1
  1184  1577  1579    1
  1185  1577  1580    1
  1186  1581  1582    1
  1187  1581  1583    1
  1188  1581  1584    1
  1189  1585  1586    1
  1190  1585  1587    1
  1191  1585  1588    1
  1192  1589  1590    1
  1193  1589  1591    1
  1194  1589  1592    1
  1195  1593  1594    1
  1196  1593  1595    1
  1197  1593  1596    1
  1198  1597  1598    1
  1199  1597  1599    1
  1200  1597  1600    1
  1201  1601  1602    1
  1202  1601  1603    1
  1203  1601  1604    1
  1204  1605  1606    1
  1205  1605  1607    1
  1206  1605  1608    1
  1207  1609  1610    1
  1208  1609  1611    1
  1209  1609  1612    1
  1210  1613  1614    1
  1211  1613  1615    1
  1212  1613  1616    1
  1213  1617  1618    1
  1214  1617  1619    1
  1215  1617  1620    1
  1216  1621  1622    1
  1217  1621  1623    1
  1218  1621  1624    1
  1219  1625  1626    1
  1220  1625  1627    1
  1221  1625  1628    1
  1222  1629  1630    1
  1223  1629  1631    1
  1224  1629  1632    1
  1225  1633  1634    1
  1226  1633  1635    1
  1227  1633  1636    1
  1228  1637  1638    1
  1229  1637  1639    1
  1230  1637  1640    1
  1231  1641  1642    1
  1232  1641  1643    1
  1233  1641  1644    1
  1234  1645  1646    1
  1235  1645  1647    1
  1236  1645  1648    1
  1237  1649  1650    1
  1238  1649  1651    1
  1239  1649  1652    1
  1240  1653  1654    1
  1241  1653  1655    1
  1242  1653  1656    1
  1243  1657  1658    1
  1244  1657  1659    1
  1245  1657  1660    1
  1246  1661  1662    1
  1247  1661  1663    1
  1248  1661  1664    1
  1249  1665  1666    1
  1250  1665  1667    1
  1251  1665  1668    1
  1252  1669  1670    1
  1253  1669  1671    1
  1254  1669  1672    1
  1255  1673  1674    1
  1256  1673  1675    1
  1257  1673  1676    1
  1258  1677  1678    1
  1259  1677  1679    1
  1260  1677  1680    1
  1261  1681  1682    1
  1262  1681  1683    1
  1263  1681  1684    1
  1264  1685  1686    1
  1265  1685  1687    1
  1266  1685  1688    1
  1267  1689  1690    1
  1268  1689  1691    1
  1269  1689  1692    1
  1270  1693  1694    1
  1271  1693  1695    1
  1272  1693  1696    1
  1273  1697  1698    1
  1274  1697  1699    1
  1275  1697  1700    1
  1276  1701  1702    1
  1277  1701  1703    1
  1278  1701  1704    1
  1279  1705  1706    1
  1280  1705  1707    1
  1281  1705  1708    1
  1282  1709  1710    1
  1283  1709  1711    1
  1284  1709  1712    1
  1285  1713  1714    1
  1286  1713  1715    1
  1287  1713  1716    1
  1288  1717  1718    1
  1289  1717  1719    1
  1290  1717  1720    1
  1291  1721  1722    1
  1292  1721  1723    1
  1293  1721  1724    1
  1294  1725  1726    1
  1295  1725  1727    1
  1296  1725  1728    1
  1297  1729  1730    1
  1298  1729  1731    1
  1299  1729  1732    1
  1300  1733  1734    1
  1301  1733  1735    1
  1302  1733  1736    1
  1303  1737  1738    1
  1304  1737  1739    1
  1305  1737  1740    1
  1306  1741  1742    1
  1307  1741  1743    1
  1308  1741  1744    1
  1309  1745  1746    1
  1310  1745  1747    1
  1311  1745  1748    1
  1312  1749  1750    1
  1313  1749  1751    1
  1314  1749  1752    1
  1315  1753  1754    1
  1316  1753  1755    1
  1317  1753  1756    1
  1318  1757  1758    1
  1319  1757  1759    1
  1320  1757  1760    1
  1321  1761  1762    1
  1322  1761  1763    1
  1323  1761  1764    1
  1324  1765  1766    1
  1325  1765  1767    1
  1326  1765  1768    1
  1327  1769  1770    1
  1328  1769  1771    1
  1329  1769  1772    1
  1330  1773  1774    1
  1331  1773  1775    1
  1332  1773  1776    1
  1333  1777  1778    1
  1334  1777  1779    1
  1335  1777  1780    1
  1336  1781  1782    1
  1337  1781  1783    1
  1338  1781  1784    1
  1339  1785  1786    1
  1340  1785  1787    1
  1341  1785  1788    1
  1342  1789  1790    1
  1343  1789  1791    1
  1344  1789  1792    1
  1345  1793  1794    1
  1346  1793  1795    1
  1347  1793  1796    1
  1348  1797  1798    1
  1349  1797  1799    1
  1350  1797  1800    1
  1351  1801  1802    1
  1352  1801  1803    1
  1353  1801  1804    1
  1354  1805  1806    1
  1355  1805  1807    1
  1356  1805  1808    1
  1357  1809  1810    1
  1358  1809  1811    1
  1359  1809  1812    1
  1360  1813  1814    1
  1361  1813  1815    1
  1362  1813  1816    1
  1363  1817  1818    1
  1364  1817  1819    1
  1365  1817  1820    1
  1366  1821  1822    1
  1367  1821  1823    1
  1368  1821  1824    1
  1369  1825  1826    1
  1370  1825  1827    1
  1371  1825  1828    1
  1372  1829  1830    1
  1373  1829  1831    1
  1374  1829  1832    1
  1375  1833  1834    1
  1376  1833  1835    1
  1377  1833  1836    1
  1378  1837  1838    1
  1379  1837  1839    1
  1380  1837  1840    1
  1381  1841  1842    1
  1382  1841  1843    1
  1383  1841  1844    1
  1384  1845  1846    1
  1385  1845  1847    1
  1386  1845  1848    1
  1387  1849  1850    1
  1388  1849  1851    1
  1389  1849  1852    1
  1390  1853  1854    1
  1391  1853  1855    1
  1392  1853  1856    1
  1393  1857  1858    1
  1394  1857  1859    1
  1395  1857  1860    1
  1396  1861  1862    1
  1397  1861  1863    1
  1398  1861  1864    1
  1399  1865  1866    1
  1400  1865  1867    1
  1401  1865  1868    1
  1402  1869  1870    1
  1403  1869  1871    1
  1404  1869  1872    1
  1405  1873  1874    1
  1406  1873  1875    1
  1407  1873  1876    1
  1408  1877  1878    1
  1409  1877  1879    1
  1410  1877  1880    1
  1411  1881  1882    1
  1412  1881  1883    1
  1413  1881  1884    1
  1414  1885  1886    1
  1415  1885  1887    1
  1416  1885  1888    1
  1417  1889  1890    1
  1418  1889  1891    1
  1419  1889  1892    1
  1420  1893  1894    1
  1421  1893  1895    1
  1422  1893  1896    1
  1423  1897  1898    1
  1424  1897  1899    1
  1425  1897  1900    1
  1426  1901  1902    1
  1427  1901  1903    1
  1428  1901  1904    1
  1429  1905  1906    1
  1430  1905  1907    1
  1431  1905  1908    1
  1432  1909  1910    1
  1433  1909  1911    1
  1434  1909  1912    1
  1435  1913  1914    1
  1436  1913  1915    1
  1437  1913  1916    1
  1438  1917  1918    1
  1439  1917  1919    1
  1440  1917  1920    1
  1441  1921  1922    1
  1442  1921  1923    1
  1443  1921  1924    1
  1444  1925  1926    1
  1445  1925  1927    1
  1446  1925  1928    1
  1447  1929  1930    1
  1448  1929  1931    1
  1449  1929  1932    1
  1450  1933  1934    1
  1451  1933  1935    1
  1452  1933  1936    1
  1453  1937  1938    1
  1454  1937  1939    1
  1455  1937  1940    1
  1456  1941  1942    1
  1457  1941  1943    1
  1458  1941  1944    1
  1459  1945  1946    1
  1460  1945  1947    1
  1461  1945  1948    1
  1462  1949  1950    1
  1463  1949  1951    1
  1464  1949  1952    1
  1465  1953  1954    1
  1466  1953  1955    1
  1467  1953  1956    1
  1468  1957  1958    1
  1469  1957  1959    1
  1470  1957  1960    1
  1471  1961  1962    1
  1472  1961  1963    1
  1473  1961  1964    1
  1474  1965  1966    1
  1475  1965  1967    1
  1476  1965  1968    1
  1477  1969  1970    1
  1478  1969  1971    1
  1479  1969  1972    1
  1480  1973  1974    1
  1481  1973  1975    1
  1482  1973  1976    1
  1483  1977  1978    1
  1484  1977  1979    1
  1485  1977  1980    1
  1486  1981  1982    1
  1487  1981  1983    1
  1488  1981  1984    1
  1489  1985  1986    1
  1490  1985  1987    1
  1491  1985  1988    1
  1492  1989  1990    1
  1493  1989  1991    1
  1494  1989  1992    1
  1495  1993  1994    1
  1496  1993  1995    1
  1497  1993  1996    1
  1498  1997  1998    1
  1499  1997  1999    1
  1500  1997  2000    1
  1501  2001  2002    1
  1502  2001  2003    1
  1503  2001  2004    1
  1504  2005  2006    1
  1505  2005  2007    1
  1506  2005  2008    1
  1507  2009  2010    1
  1508  2009  2011    1
  1509  2009  2012    1
  1510  2013  2014    1
  1511  2013  2015    1
  1512  2013  2016    1
  1513  2017  2018    1
  1514  2017  2019    1
  1515  2017  2020    1
  1516  2021  2022    1
  1517  2021  2023    1
  1518  2021  2024    1
  1519  2025  2026    1
  1520  2025  2027    1
  1521  2025  2028    1
  1522  2029  2030    1
  1523  2029  2031    1
  1524  2029  2032    1
  1525  2033  2034    1
  1526  2033  2035    1
  1527  2033  2036    1
  1528  2037  2038    1
  1529  2037  2039    1
  1530  2037  2040    1
  1531  2041  2042    1
  1532  2041  2043    1
  1533  2041  2044    1
  1534  2045  2046    1
  1535  2045  2047    1
  1536  2045  2048    1
  1537  2049  2050    1
  1538  2049  2051    1
  1539  2049  2052    1
  1540  2053  2054    1
  1541  2053  2055    1
  1542  2053  2056    1
  1543  2057  2058    1
  1544  2057  2059    1
  1545  2057  2060    1
  1546  2061  2062    1
  1547  2061  2063    1
  1548  2061  2064    1
  1549  2065  2066    1
  1550  2065  2067    1
  1551  2065  2068    1
  1552  2069  2070    1
  1553  2069  2071    1
  1554  2069  2072    1
  1555  2073  2074    1
  1556  2073  2075    1
  1557  2073  2076    1
  1558  2077  2078    1
  1559  2077  2079    1
  1560  2077  2080    1
  1561  2081  2082    1
  1562  2081  2083    1
  1563  2081  2084    1
  1564  2085  2086    1
  1565  2085  2087    1
  1566  2085  2088    1
  1567  2089  2090    1
  1568  2089  2091    1
  1569  2089  2092    1
  1570  2093  2094    1
  1571  2093  2095    1
  1572  2093  2096    1
  1573  2097  2098    1
  1574  2097  2099    1
  1575  2097  2100    1
  1576  2101  2102    1
  1577  2101  2103    1
  1578  2101  2104    1
  1579  2105  2106    1
  1580  2105  2107    1
  1581  2105  2108    1
  1582  2109  2110    1
  1583  2109  2111    1
  1584  2109  2112    1
  1585  2113  2114    1
  1586  2113  2115    1
  1587  2113  2116    1
  1588  2117  2118    1
  1589  2117  2119    1
  1590  2117  2120    1
  1591  2121  2122    1
  1592  2121  2123    1
  1593  2121  2124    1
  1594  2125  2126    1
  1595  2125  2127    1
  1596  2125  2128    1
  1597  2129  2130    1
  1598  2129  2131    1
  1599  2129  2132    1
  1600  2133  2134    1
  1601  2133  2135    1
  1602  2133  2136    1
  1603  2137  2138    1
  1604  2137  2139    1
  1605  2137  2140    1
  1606  2141  2142    1
  1607  2141  2143    1
  1608  2141  2144    1
  1609  2145  2146    1
  1610  2145  2147    1
  1611  2145  2148    1
  1612  2149  2150    1
  1613  2149  2151    1
  1614  2149  2152    1
  1615  2153  2154    1
  1616  2153  2155    1
  1617  2153  2156    1
  1618  2157  2158    1
  1619  2157  2159    1
  1620  2157  2160    1
  1621  2161  2162    1
  1622  2161  2163    1
  1623  2161  2164    1
  1624  2165  2166    1
  1625  2165  2167    1
  1626  2165  2168    1
  1627  2169  2170    1
  1628  2169  2171    1
  1629  2169  2172    1
  1630  2173  2174    1
  1631  2173  2175    1
  1632  2173  2176    1
  1633  2177  2178    1
  1634  2177  2179    1
  1635  2177  2180    1
  1636  2181  2182    1
  1637  2181  2183    1
  1638  2181  2184    1
  1639  2185  2186    1
  1640  2185  2187    1
  1641  2185  2188    1
  1642  2189  2190    1
  1643  2189  2191    1
  1644  2189  2192    1
  1645  2193  2194    1
  1646  2193  2195    1
  1647  2193  2196    1
  1648  2197  2198    1
  1649  2197  2199    1
  1650  2197  2200    1
  1651  2201  2202    1
  1652  2201  2203    1
  1653  2201  2204    1
  1654  2205  2206    1
  1655  2205  2207    1
  1656  2205  2208    1
  1657  2209  2210    1
  1658  2209  2211    1
  1659  2209  2212    1
  1660  2213  2214    1
  1661  2213  2215    1
  1662  2213  2216    1
  1663  2217  2218    1
  1664  2217  2219    1
  1665  2217  2220    1
  1666  2221  2222    1
  1667  2221  2223    1
  1668  2221  2224    1
  1669  2225  2226    1
  1670  2225  2227    1
  1671  2225  2228    1
  1672  2229  2230    1
  1673  2229  2231    1
  1674  2229  2232    1
  1675  2233  2234    1
  1676  2233  2235    1
  1677  2233  2236    1
  1678  2237  2238    1
  1679  2237  2239    1
  1680  2237  2240    1
  1681  2241  2242    1
  1682  2241  2243    1
  1683  2241  2244    1
  1684  2245  2246    1
  1685  2245  2247    1
  1686  2245  2248    1
  1687  2249  2250    1
  1688  2249  2251    1
  1689  2249  2252    1
  1690  2253  2254    1
  1691  2253  2255    1
  1692  2253  2256    1
  1693  2257  2258    1
  1694  2257  2259    1
  1695  2257  2260    1
  1696  2261  2262    1
  1697  2261  2263    1
  1698  2261  2264    1
  1699  2265  2266    1
  1700  2265  2267    1
  1701  2265  2268    1
  1702  2269  2270    1
  1703  2269  2271    1
  1704  2269  2272    1
  1705  2273  2274    1
  1706  2273  2275    1
  1707  2273  2276    1
  1708  2277  2278    1
  1709  2277  2279    1
  1710  2277  2280    1
  1711  2281  2282    1
  1712  2281  2283    1
  1713  2281  2284    1
  1714  2285  2286    1
  1715  2285  2287    1
  1716  2285  2288    1
  1717  2289  2290    1
  1718  2289  2291    1
  1719  2289  2292    1
  1720  2293  2294    1
  1721  2293  2295    1
  1722  2293  2296    1
  1723  2297  2298    1
  1724  2297  2299    1
  1725  2297  2300    1
  1726  2301  2302    1
  1727  2301  2303    1
  1728  2301  2304    1
  1729  2305  2306    1
  1730  2305  2307    1
  1731  2305  2308    1
  1732  2309  2310    1
  1733  2309  2311    1
  1734  2309  2312    1
  1735  2313  2314    1
  1736  2313  2315    1
  1737  2313  2316    1
  1738  2317  2318    1
  1739  2317  2319    1
  1740  2317  2320    1
  1741  2321  2322    1
  1742  2321  2323    1
  1743  2321  2324    1
  1744  2325  2326    1
  1745  2325  2327    1
  1746  2325  2328    1
  1747  2329  2330    1
  1748  2329  2331    1
  1749  2329  2332    1
  1750  2333  2334    1
  1751  2333  2335    1
  1752  2333  2336    1
  1753  2337  2338    1
  1754  2337  2339    1
  1755  2337  2340    1
  1756  2341  2342    1
  1757  2341  2343    1
  1758  2341  2344    1
  1759  2345  2346    1
  1760  2345  2347    1
  1761  2345  2348    1
  1762  2349  2350    1
  1763  2349  2351    1
  1764  2349  2352    1
  1765  2353  2354    1
  1766  2353  2355    1
  1767  2353  2356    1
  1768  2357  2358    1
  1769  2357  2359    1
  1770  2357  2360    1
  1771  2361  2362    1
  1772  2361  2363    1
  1773  2361  2364    1
  1774  2365  2366    1
  1775  2365  2367    1
  1776  2365  2368    1
  1777  2369  2370    1
  1778  2369  2371    1
  1779  2369  2372    1
  1780  2373  2374    1
  1781  2373  2375    1
  1782  2373  2376    1
  1783  2377  2378    1
  1784  2377  2379    1
  1785  2377  2380    1
  1786  2381  2382    1
  1787  2381  2383    1
  1788  2381  2384    1
  1789  2385  2386    1
  1790  2385  2387    1
  1791  2385  2388    1
  1792  2389  2390    1
  1793  2389  2391    1
  1794  2389  2392    1
  1795  2393  2394    1
  1796  2393  2395    1
  1797  2393  2396    1
  1798  2397  2398    1
  1799  2397  2399    1
  1800  2397  2400    1
  1801  2401  2402    1
  1802  2401  2403    1
  1803  2401  2404    1
  1804  2405  2406    1
  1805  2405  2407    1
  1806  2405  2408    1
  1807  2409  2410    1
  1808  2409  2411    1
  1809  2409  2412    1
  1810  2413  2414    1
  1811  2413  2415    1
  1812  2413  2416    1
  1813  2417  2418    1
  1814  2417  2419    1
  1815  2417  2420    1
  1816  2421  2422    1
  1817  2421  2423    1
  1818  2421  2424    1
  1819  2425  2426    1
  1820  2425  2427    1
  1821  2425  2428    1
  1822  2429  2430    1
  1823  2429  2431    1
  1824  2429  2432    1
  1825  2433  2434    1
  1826  2433  2435    1
  1827  2433  2436    1
  1828  2437  2438    1
  1829  2437  2439    1
  1830  2437  2440    1
  1831  2441  2442    1
  1832  2441  2443    1
  1833  2441  2444    1
  1834  2445  2446    1
  1835  2445  2447    1
  1836  2445  2448    1
  1837  2449  2450    1
  1838  2449  2451    1
  1839  2449  2452    1
  1840  2453  2454    1
  1841  2453  2455    1
  1842  2453  2456    1
  1843  2457  2458    1
  1844  2457  2459    1
  1845  2457  2460    1
  1846  2461  2462    1
  1847  2461  2463    1
  1848  2461  2464    1
  1849  2465  2466    1
  1850  2465  2467    1
  1851  2465  2468    1
  1852  2469  2470    1
  1853  2469  2471    1
  1854  2469  2472    1
  1855  2473  2474    1
  1856  2473  2475    1
  1857  2473  2476    1
  1858  2477  2478    1
  1859  2477  2479    1
  1860  2477  2480    1
  1861  2481  2482    1
  1862  2481  2483    1
  1863  2481  2484    1
  1864  2485  2486    1
  1865  2485  2487    1
  1866  2485  2488    1
  1867  2489  2490    1
  1868  2489  2491    1
  1869  2489  2492    1
  1870  2493  2494    1
  1871  2493  2495    1
  1872  2493  2496    1
  1873  2497  2498    1
  1874  2497  2499    1
  1875  2497  2500    1
  1876  2501  2502    1
  1877  2501  2503    1
  1878  2501  2504    1
  1879  2505  2506    1
  1880  2505  2507    1
  1881  2505  2508    1
  1882  2509  2510    1
  1883  2509  2511    1
  1884  2509  2512    1
  1885  2513  2514    1
  1886  2513  2515    1
  1887  2513  2516    1
  1888  2517  2518    1
  1889  2517  2519    1
  1890  2517  2520    1
  1891  2521  2522    1
  1892  2521  2523    1
  1893  2521  2524    1
  1894  2525  2526    1
  1895  2525  2527    1
  1896  2525  2528    1
  1897  2529  2530    1
  1898  2529  2531    1
  1899  2529  2532    1
  1900  2533  2534    1
  1901  2533  2535    1
  1902  2533  2536    1
  1903  2537  2538    1
  1904  2537  2539    1
  1905  2537  2540    1
  1906  2541  2542    1
  1907  2541  2543    1
  1908  2541  2544    1
  1909  2545  2546    1
  1910  2545  2547    1
  1911  2545  2548    1
  1912  2549  2550    1
  1913  2549  2551    1
  1914  2549  2552    1
  1915  2553  2554    1
  1916  2553  2555    1
  1917  2553  2556    1
  1918  2557  2558    1
  1919  2557  2559    1
  1920  2557  2560    1
  1921  2561  2562    1
  1922  2561  2563    1
  1923  2561  2564    1
  1924  2565  2566    1
  1925  2565  2567    1
  1926  2565  2568    1
  1927  2569  2570    1
  1928  2569  2571    1
  1929  2569  2572    1
  1930  2573  2574    1
  1931  2573  2575    1
  1932  2573  2576    1
  1933  2577  2578    1
  1934  2577  2579    1
  1935  2577  2580    1
  1936  2581  2582    1
  1937  2581  2583    1
  1938  2581  2584    1
  1939  2585  2586    1
  1940  2585  2587    1
  1941  2585  2588    1
  1942  2589  2590    1
  1943  2589  2591    1
  1944  2589  2592    1
  1945  2593  2594    1
  1946  2593  2595    1
  1947  2593  2596    1
  1948  2597  2598    1
  1949  2597  2599    1
  1950  2597  2600    1
  1951  2601  2602    1
  1952  2601  2603    1
  1953  2601  2604    1
  1954  2605  2606    1
  1955  2605  2607    1
  1956  2605  2608    1
  1957  2609  2610    1
  1958  2609  2611    1
  1959  2609  2612    1
  1960  2613  2614    1
  1961  2613  2615    1
  1962  2613  2616    1
  1963  2617  2618    1
  1964  2617  2619    1
  1965  2617  2620    1
  1966  2621  2622    1
  1967  2621  2623    1
  1968  2621  2624    1
  1969  2625  2626    1
  1970  2625  2627    1
  1971  2625  2628    1
  1972  2629  2630    1
  1973  2629  2631    1
  1974  2629  2632    1
  1975  2633  2634    1
  1976  2633  2635    1
  1977  2633  2636    1
  1978  2637  2638    1
  1979  2637  2639    1
  1980  2637  2640    1
  1981  2641  2642    1
  1982  2641  2643    1
  1983  2641  2644    1
  1984  2645  2646    1
  1985  2645  2647    1
  1986  2645  2648    1
  1987  2649  2650    1
  1988  2649  2651    1
  1989  2649  2652    1
  1990  2653  2654    1
  1991  2653  2655    1
  1992  2653  2656    1
  1993  2657  2658    1
  1994  2657  2659    1
  1995  2657  2660    1
  1996  2661  2662    1
  1997  2661  2663    1
  1998  2661  2664    1
  1999  2665  2666    1
  2000  2665  2667    1
  2001  2665  2668    1
  2002  2669  2670    1
  2003  2669  2671    1
  2004  2669  2672    1
  2005  2673  2674    1
  2006  2673  2675    1
  2007  2673  2676    1
  2008  2677  2678    1
  2009  2677  2679    1
  2010  2677  2680    1
  2011  2681  2682    1
  2012  2681  2683    1
  2013  2681  2684    1
  2014  2685  2686    1
  2015  2685  2687    1
  2016  2685  2688    1
  2017  2689  2690    1
  2018  2689  2691    1
  2019  2689  2692    1
  2020  2693  2694    1
  2021  2693  2695    1
  2022  2693  2696    1
  2023  2697  2698    1
  2024  2697  2699    1
  2025  2697  2700    1
  2026  2701  2702    1
  2027  2701  2703    1
  2028  2701  2704    1
  2029  2705  2706    1
  2030  2705  2707    1
  2031  2705  2708    1
  2032  2709  2710    1
  2033  2709  2711    1
  2034  2709  2712    1
  2035  2713  2714    1
  2036  2713  2715    1
  2037  2713  2716    1
  2038  2717  2718    1
  2039  2717  2719    1
  2040  2717  2720    1
  2041  2721  2722    1
  2042  2721  2723    1
  2043  2721  2724    1
  2044  2725  2726    1
  2045  2725  2727    1
  2046  2725  2728    1
  2047  2729  2730    1
  2048  2729  2731    1
  2049  2729  2732    1
  2050  2733  2734    1
  2051  2733  2735    1
  2052  2733  2736    1
  2053  2737  2738    1
  2054  2737  2739    1
  2055  2737  2740    1
  2056  2741  2742    1
  2057  2741  2743    1
  2058  2741  2744    1
  2059  2745  2746    1
  2060  2745  2747    1
  2061  2745  2748    1
  2062  2749  2750    1
  2063  2749  2751    1
  2064  2749  2752    1
  2065  2753  2754    1
  2066  2753  2755    1
  2067  2753  2756    1
  2068  2757  2758    1
  2069  2757  2759    1
  2070  2757  2760    1
  2071  2761  2762    1
  2072  2761  2763    1
  2073  2761  2764    1
  2074  2765  2766    1
  2075  2765  2767    1
  2076  2765  2768    1
  2077  2769  2770    1
  2078  2769  2771    1
  2079  2769  2772    1
  2080  2773  2774    1
  2081  2773  2775    1
  2082  2773  2776    1
  2083  2777  2778    1
  2084  2777  2779    1
  2085  2777  2780    1
  2086  2781  2782    1
  2087  2781  2783    1
  2088  2781  2784    1
  2089  2785  2786    1
  2090  2785  2787    1
  2091  2785  2788    1
  2092  2789  2790    1
  2093  2789  2791    1
  2094  2789  2792    1
  2095  2793  2794    1
  2096  2793  2795    1
  2097  2793  2796    1
  2098  2797  2798    1
  2099  2797  2799    1
  2100  2797  2800    1
  2101  2801  2802    1
  2102  2801  2803    1
  2103  2801  2804    1
  2104  2805  2806    1
  2105  2805  2807    1
  2106  2805  2808    1
  2107  2809  2810    1
  2108  2809  2811    1
  2109  2809  2812    1
  2110  2813  2814    1
  2111  2813  2815    1
  2112  2813  2816    1
  2113  2817  2818    1
  2114  2817  2819    1
  2115  2817  2820    1
  2116  2821  2822    1
  2117  2821  2823    1
  2118  2821  2824    1
  2119  2825  2826    1
  2120  2825  2827    1
  2121  2825  2828    1
  2122  2829  2830    1
  2123  2829  2831    1
  2124  2829  2832    1
  2125  2833  2834    1
  2126  2833  2835    1
  2127  2833  2836    1
  2128  2837  2838    1
  2129  2837  2839    1
  2130  2837  2840    1
  2131  2841  2842    1
  2132  2841  2843    1
  2133  2841  2844    1
  2134  2845  2846    1
  2135  2845  2847    1
  2136  2845  2848    1
  2137  2849  2850    1
  2138  2849  2851    1
  2139  2849  2852    1
  2140  2853  2854    1
  2141  2853  2855    1
  2142  2853  2856    1
  2143  2857  2858    1
  2144  2857  2859    1
  2145  2857  2860    1
  2146  2861  2862    1
  2147  2861  2863    1
  2148  2861  2864    1
  2149  2865  2866    1
  2150  2865  2867    1
  2151  2865  2868    1
  2152  2869  2870    1
  2153  2869  2871    1
  2154  2869  2872    1
  2155  2873  2874    1
  2156  2873  2875    1
  2157  2873  2876    1
  2158  2877  2878    1
  2159  2877  2879    1
  2160  2877  2880    1
  2161  2881  2882    1
  2162  2881  2883    1
  2163  2881  2884    1
  2164  2885  2886    1
  2165  2885  2887    1
  2166  2885  2888    1
  2167  2889  2890    1
  2168  2889  2891    1
  2169  2889  2892    1
  2170  2893  2894    1
  2171  2893  2895    1
  2172  2893  2896    1
  2173  2897  2898    1
  2174  2897  2899    1
  2175  2897  2900    1
  2176  2901  2902    1
  2177  2901  2903    1
  2178  2901  2904    1
  2179  2905  2906    1
  2180  2905  2907    1
  2181  2905  2908    1
  2182  2909  2910    1
  2183  2909  2911    1
  2184  2909  2912    1
  2185  2913  2914    1
  2186  2913  2915    1
  2187  2913  2916    1
  2188  2917  2918    1
  2189  2917  2919    1
  2190  2917  2920    1
  2191  2921  2922    1
  2192  2921  2923    1
  2193  2921  2924    1
  2194  2925  2926    1
  2195  2925  2927    1
  2196  2925  2928    1
  2197  2929  2930    1
  2198  2929  2931    1
  2199  2929  2932    1
  2200  2933  2934    1
  2201  2933  2935    1
  2202  2933  2936    1
  2203  2937  2938    1
  2204  2937  2939    1
  2205  2937  2940    1
  2206  2941  2942    1
  2207  2941  2943    1
  2208  2941  2944    1
  2209  2945  2946    1
  2210  2945  2947    1
  2211  2945  2948    1
  2212  2949  2950    1
  2213  2949  2951    1
  2214  2949  2952    1
  2215  2953  2954    1
  2216  2953  2955    1
  2217  2953  2956    1
  2218  2957  2958    1
  2219  2957  2959    1
  2220  2957  2960    1
  2221  2961  2962    1
  2222  2961  2963    1
  2223  2961  2964    1
  2224  2965  2966    1
  2225  2965  2967    1
  2226  2965  2968    1
  2227  2969  2970    1
  2228  2969  2971    1
  2229  2969  2972    1
  2230  2973  2974    1
  2231  2973  2975    1
  2232  2973  2976    1
  2233  2977  2978    1
  2234  2977  2979    1
  2235  2977  2980    1
  2236  2981  2982    1
  2237  2981  2983    1
  2238  2981  2984    1
  2239  2985  2986    1
  2240  2985  2987    1
  2241  2985  2988    1
  2242  2989  2990    1
  2243  2989  2991    1
  2244  2989  2992    1
  2245  2993  2994    1
  2246  2993  2995    1
  2247  2993  2996    1
  2248  2997  2998    1
  2249  2997  2999    1
  2250  2997  3000    1
  2251  3001  3002    1
  2252  3001  3003    1
  2253  3001  3004    1
  2254  3005  3006    1
  2255  3005  3007    1
  2256  3005  3008    1
  2257  3009  3010    1
  2258  3009  3011    1
  2259  3009  3012    1
  2260  3013  3014    1
  2261  3013  3015    1
  2262  3013  3016    1
  2263  3017  3018    1
  2264  3017  3019    1
  2265  3017  3020    1
  2266  3021  3022    1
  2267  3021  3023    1
  2268  3021  3024    1
  2269  3025  3026    1
  2270  3025  3027    1
  2271  3025  3028    1
  2272  3029  3030    1
  2273  3029  3031    1
  2274  3029  3032    1
  2275  3033  3034    1
  2276  3033  3035    1
  2277  3033  3036    1
  2278  3037  3038    1
  2279  3037  3039    1
  2280  3037  3040    1
  2281  3041  3042    1
  2282  3041  3043    1
  2283  3041  3044    1
  2284  3045  3046    1
  2285  3045  3047    1
  2286  3045  3048    1
  2287  3049  3050    1
  2288  3049  3051    1
  2289  3049  3052    1
  2290  3053  3054    1
  2291  3053  3055    1
  2292  3053  3056    1
  2293  3057  3058    1
  2294  3057  3059    1
  2295  3057  3060    1
  2296  3061  3062    1
  2297  3061  3063    1
  2298  3061  3064    1
  2299  3065  3066    1
  2300  3065  3067    1
  2301  3065  3068    1
  2302  3069  3070    1
  2303  3069  3071    1
  2304  3069  3072    1
  2305  3073  3074    1
  2306  3073  3075    1
  2307  3073  3076    1
  2308  3077  3078    1
  2309  3077  3079    1
  2310  3077  3080    1
  2311  3081  3082    1
  2312  3081  3083    1
  2313  3081  3084    1
  2314  3085  3086    1
  2315  3085  3087    1
  2316  3085  3088    1
  2317  3089  3090    1
  2318  3089  3091    1
  2319  3089  3092    1
  2320  3093  3094    1
  2321  3093  3095    1
  2322  3093  3096    1
  2323  3097  3098    1
  2324  3097  3099    1
  2325  3097  3100    1
  2326  3101  3102    1
  2327  3101  3103    1
  2328  3101  3104    1
  2329  3105  3106    1
  2330  3105  3107    1
  2331  3105  3108    1
  2332  3109  3110    1
  2333  3109  3111    1
  2334  3109  3112    1
  2335  3113  3114    1
  2336  3113  3115    1
  2337  3113  3116    1
  2338  3117  3118    1
  2339  3117  3119    1
  2340  3117  3120    1
  2341  3121  3122    1
  2342  3121  3123    1
  2343  3121  3124    1
  2344  3125  3126    1
  2345  3125  3127    1
  2346  3125  3128    1
  2347  3129  3130    1
  2348  3129  3131    1
  2349  3129  3132    1
  2350  3133  3134    1
  2351  3133  3135    1
  2352  3133  3136    1
  2353  3137  3138    1
  2354  3137  3139    1
  2355  3137  3140    1
  2356  3141  3142    1
  2357  3141  3143    1
  2358  3141  3144    1
  2359  3145  3146    1
  2360  3145  3147    1
  2361  3145  3148    1
  2362  3149  3150    1
  2363  3149  3151    1
  2364  3149  3152    1
  2365  3153  3154    1
  2366  3153  3155    1
  2367  3153  3156    1
  2368  3157  3158    1
  2369  3157  3159    1
  2370  3157  3160    1
  2371  3161  3162    1
  2372  3161  3163    1
  2373  3161  3164    1
  2374  3165  3166    1
  2375  3165  3167    1
  2376  3165  3168    1
  2377  3169  3170    1
  2378  3169  3171    1
  2379  3169  3172    1
  2380  3173  3174    1
  2381  3173  3175    1
  2382  3173  3176    1
  2383  3177  3178    1
  2384  3177  3179    1
  2385  3177  3180    1
  2386  3181  3182    1
  2387  3181  3183    1
  2388  3181  3184    1
  2389  3185  3186    1
  2390  3185  3187    1
  2391  3185  3188    1
  2392  3189  3190    1
  2393  3189  3191    1
  2394  3189  3192    1
  2395  3193  3194    1
  2396  3193  3195    1
  2397  3193  3196    1
  2398  3197  3198    1
  2399  3197  3199    1
  2400  3197  3200    1
  2401  3201  3202    1
  2402  3201  3203    1
  2403  3201  3204    1
  2404  3205  3206    1
  2405  3205  3207    1
  2406  3205  3208    1
  2407  3209  3210    1
  2408  3209  3211    1
  2409  3209  3212    1
  2410  3213  3214    1
  2411  3213  3215    1
  2412  3213  3216    1
  2413  3217  3218    1
  2414  3217  3219    1
  2415  3217  3220    1
  2416  3221  3222    1
  2417  3221  3223    1
  2418  3221  3224    1
  2419  3225  3226    1
  2420  3225  3227    1
  2421  3225  3228    1
  2422  3229  3230    1
  2423  3229  3231    1
  2424  3229  3232    1
  2425  3233  3234    1
  2426  3233  3235    1
  2427  3233  3236    1
  2428  3237  3238    1
  2429  3237  3239    1
  2430  3237  3240    1
  2431  3241  3242    1
  2432  3241  3243    1
  2433  3241  3244    1
  2434  3245  3246    1
  2435  3245  3247    1
  2436  3245  3248    1
  2437  3249  3250    1
  2438  3249  3251    1
  2439  3249  3252    1
  2440  3253  3254    1
  2441  3253  3255    1
  2442  3253  3256    1
  2443  3257  3258    1
  2444  3257  3259    1
  2445  3257  3260    1
  2446  3261  3262    1
  2447  3261  3263    1
  2448  3261  3264    1
  2449  3265  3266    1
  2450  3265  3267    1
  2451  3265  3268    1
  2452  3269  3270    1
  2453  3269  3271    1
  2454  3269  3272    1
  2455  3273  3274    1
  2456  3273  3275    1
  2457  3273  3276    1
  2458  3277  3278    1
  2459  3277  3279    1
  2460  3277  3280    1
  2461  3281  3282    1
  2462  3281  3283    1
  2463  3281  3284    1
  2464  3285  3286    1
  2465  3285  3287    1
  2466  3285  3288    1
  2467  3289  3290    1
  2468  3289  3291    1
  2469  3289  3292    1
  2470  3293  3294    1
  2471  3293  3295    1
  2472  3293  3296    1
  2473  3297  3298    1
  2474  3297  3299    1
  2475  3297  3300    1
  2476  3301  3302    1
  2477  3301  3303    1
  2478  3301  3304    1
  2479  3305  3306    1
  2480  3305  3307    1
  2481  3305  3308    1
  2482  3309  3310    1
  2483  3309  3311    1
  2484  3309  3312    1
  2485  3313  3314    1
  2486  3313  3315    1
  2487  3313  3316    1
  2488  3317  3318    1
  2489  3317  3319    1
  2490  3317  3320    1
  2491  3321  3322    1
  2492  3321  3323    1
  2493  3321  3324    1
  2494  3325  3326    1
  2495  3325  3327    1
  2496  3325  3328    1
  2497  3329  3330    1
  2498  3329  3331    1
  2499  3329  3332    1
  2500  3333  3334    1
  2501  3333  3335    1
  2502  3333  3336    1
  2503  3337  3338    1
  2504  3337  3339    1
  2505  3337  3340    1
  2506  3341  3342    1
  2507  3341  3343    1
  2508  3341  3344    1
  2509  3345  3346    1
  2510  3345  3347    1
  2511  3345  3348    1
  2512  3349  3350    1
  2513  3349  3351    1
  2514  3349  3352    1
  2515  3353  3354    1
  2516  3353  3355    1
  2517  3353  3356    1
  2518  3357  3358    1
  2519  3357  3359    1
  2520  3357  3360    1
  2521  3361  3362    1
  2522  3361  3363    1
  2523  3361  3364    1
  2524  3365  3366    1
  2525  3365  3367    1
  2526  3365  3368    1
  2527  3369  3370    1
  2528  3369  3371    1
  2529  3369  3372    1
  2530  3373  3374    1
  2531  3373  3375    1
  2532  3373  3376    1
  2533  3377  3378    1
  2534  3377  3379    1
  2535  3377  3380    1
  2536  3381  3382    1
  2537  3381  3383    1
  2538  3381  3384    1
  2539  3385  3386    1
  2540  3385  3387    1
  2541  3385  3388    1
  2542  3389  3390    1
  2543  3389  3391    1
  2544  3389  3392    1
  2545  3393  3394    1
  2546  3393  3395    1
  2547  3393  3396    1
  2548  3397  3398    1
  2549  3397  3399    1
  2550  3397  3400    1
  2551  3401  3402    1
  2552  3401  3403    1
  2553  3401  3404    1
  2554  3405  3406    1
  2555  3405  3407    1
  2556  3405  3408    1
  2557  3409  3410    1
  2558  3409  3411    1
  2559  3409  3412    1
  2560  3413  3414    1
  2561  3413  3415    1
  2562  3413  3416    1
  2563  3417  3418    1
  2564  3417  3419    1
  2565  3417  3420    1
  2566  3421  3422    1
  2567  3421  3423    1
  2568  3421  3424    1
  2569  3425  3426    1
  2570  3425  3427    1
  2571  3425  3428    1
  2572  3429  3430    1
  2573  3429  3431    1
  2574  3429  3432    1
  2575  3433  3434    1
  2576  3433  3435    1
  2577  3433  3436    1
  2578  3437  3438    1
  2579  3437  3439    1
  2580  3437  3440    1
  2581  3441  3442    1
  2582  3441  3443    1
  2583  3441  3444    1
  2584  3445  3446    1
  2585  3445  3447    1
  2586  3445  3448    1
  2587  3449  3450    1
  2588  3449  3451    1
  2589  3449  3452    1
  2590  3453  3454    1
  2591  3453  3455    1
  2592  3453  3456    1
  2593  3457  3458    1
  2594  3457  3459    1
  2595  3457  3460    1
  2596  3461  3462    1
  2597  3461  3463    1
  2598  3461  3464    1
  2599  3465  3466    1
  2600  3465  3467    1
  2601  3465  3468    1
  2602  3469  3470    1
  2603  3469  3471    1
  2604  3469  3472    1
  2605  3473  3474    1
  2606  3473  3475    1
  2607  3473  3476    1
  2608  3477  3478    1
  2609  3477  3479    1
  2610  3477  3480    1
  2611  3481  3482    1
  2612  3481  3483    1
  2613  3481  3484    1
  2614  3485  3486    1
  2615  3485  3487    1
  2616  3485  3488    1
  2617  3489  3490    1
  2618  3489  3491    1
  2619  3489  3492    1
  2620  3493  3494    1
  2621  3493  3495    1
  2622  3493  3496    1
  2623  3497  3498    1
  2624  3497  3499    1
  2625  3497  3500    1
  2626  3501  3502    1
  2627  3501  3503    1
  2628  3501  3504    1
  2629  3505  3506    1
  2630  3505  3507    1
  2631  3505  3508    1
  2632  3509  3510    1
  2633  3509  3511    1
  2634  3509  3512    1
  2635  3513  3514    1
  2636  3513  3515    1
  2637  3513  3516    1
  2638  3517  3518    1
  2639  3517  3519    1
  2640  3517  3520    1
  2641  3521  3522    1
  2642  3521  3523    1
  2643  3521  3524    1
  2644  3525  3526    1
  2645  3525  3527    1
  2646  3525  3528    1
  2647  3529  3530    1
  2648  3529  3531    1
  2649  3529  3532    1
  2650  3533  3534    1
  2651  3533  3535    1
  2652  3533  3536    1
  2653  3537  3538    1
  2654  3537  3539    1
  2655  3537  3540    1
  2656  3541  3542    1
  2657  3541  3543    1
  2658  3541  3544    1
  2659  3545  3546    1
  2660  3545  3547    1
  2661  3545  3548    1
  2662  3549  3550    1
  2663  3549  3551    1
  2664  3549  3552    1
  2665  3553  3554    1
  2666  3553  3555    1
  2667  3553  3556    1
  2668  3557  3558    1
  2669  3557  3559    1
  2670  3557  3560    1
  2671  3561  3562    1
  2672  3561  3563    1
  2673  3561  3564    1
  2674  3565  3566    1
  2675  3565  3567    1
  2676  3565  3568    1
  2677  3569  3570    1
  2678  3569  3571    1
  2679  3569  3572    1
  2680  3573  3574    1
  2681  3573  3575    1
  2682  3573  3576    1
  2683  3577  3578    1
  2684  3577  3579    1
  2685  3577  3580    1
  2686  3581  3582    1
  2687  3581  3583    1
  2688  3581  3584    1
  2689  3585  3586    1
  2690  3585  3587    1
  2691  3585  3588    1
  2692  3589  3590    1
  2693  3589  3591    1
  2694  3589  3592    1
  2695  3593  3594    1
  2696  3593  3595    1
  2697  3593  3596    1
  2698  3597  3598    1
  2699  3597  3599    1
  2700  3597  3600    1
  2701  3601  3602    1
  2702  3601  3603    1
  2703  3601  3604    1
  2704  3605  3606    1
  2705  3605  3607    1
  2706  3605  3608    1
  2707  3609  3610    1
  2708  3609  3611    1
  2709  3609  3612    1
  2710  3613  3614    1
  2711  3613  3615    1
  2712  3613  3616    1
  2713  3617  3618    1
  2714  3617  3619    1
  2715  3617  3620    1
  2716  3621  3622    1
  2717  3621  3623    1
  2718  3621  3624    1
  2719  3625  3626    1
  2720  3625  3627    1
  2721  3625  3628    1
  2722  3629  3630    1
  2723  3629  3631    1
  2724  3629  3632    1
  2725  3633  3634    1
  2726  3633  3635    1
  2727  3633  3636    1
  2728  3637  3638    1
  2729  3637  3639    1
  2730  3637  3640    1
  2731  3641  3642    1
  2732  3641  3643    1
  2733  3641  3644    1
  2734  3645  3646    1
  2735  3645  3647    1
  2736  3645  3648    1
  2737  3649  3650    1
  2738  3649  3651    1
  2739  3649  3652    1
  2740  3653  3654    1
  2741  3653  3655    1
  2742  3653  3656    1
  2743  3657  3658    1
  2744  3657  3659    1
  2745  3657  3660    1
  2746  3661  3662    1
  2747  3661  3663    1
  2748  3661  3664    1
  2749  3665  3666    1
  2750  3665  3667    1
  2751  3665  3668    1
  2752  3669  3670    1
  2753  3669  3671    1
  2754  3669  3672    1
  2755  3673  3674    1
  2756  3673  3675    1
  2757  3673  3676    1
  2758  3677  3678    1
  2759  3677  3679    1
  2760  3677  3680    1
  2761  3681  3682    1
  2762  3681  3683    1
  2763  3681  3684    1
  2764  3685  3686    1
  2765  3685  3687    1
  2766  3685  3688    1
  2767  3689  3690    1
  2768  3689  3691    1
  2769  3689  3692    1
  2770  3693  3694    1
  2771  3693  3695    1
  2772  3693  3696    1
  2773  3697  3698    1
  2774  3697  3699    1
  2775  3697  3700    1
  2776  3701  3702    1
  2777  3701  3703    1
  2778  3701  3704    1
  2779  3705  3706    1
  2780  3705  3707    1
  2781  3705  3708    1
  2782  3709  3710    1
  2783  3709  3711    1
  2784  3709  3712    1
  2785  3713  3714    1
  2786  3713  3715    1
  2787  3713  3716    1
  2788  3717  3718    1
  2789  3717  3719    1
  2790  3717  3720    1
  2791  3721  3722    1
  2792  3721  3723    1
  2793  3721  3724    1
  2794  3725  3726    1
  2795  3725  3727    1
  2796  3725  3728    1
  2797  3729  3730    1
  2798  3729  3731    1
  2799  3729  3732    1
  2800  3733  3734    1
  2801  3733  3735    1
  2802  3733  3736    1
  2803  3737  3738    1
  2804  3737  3739    1
  2805  3737  3740    1
  2806  3741  3742    1
  2807  3741  3743    1
  2808  3741  3744    1
  2809  3745  3746    1
  2810  3745  3747    1
  2811  3745  3748    1
  2812  3749  3750    1
  2813  3749  3751    1
  2814  3749  3752    1
  2815  3753  3754    1
  2816  3753  3755    1
  2817  3753  3756    1
  2818  3757  3758    1
  2819  3757  3759    1
  2820  3757  3760    1
  2821  3761  3762    1
  2822  3761  3763    1
  2823  3761  3764    1
  2824  3765  3766    1
  2825  3765  3767    1
  2826  3765  3768    1
  2827  3769  3770    1
  2828  3769  3771    1
  2829  3769  3772    1
  2830  3773  3774    1
  2831  3773  3775    1
  2832  3773  3776    1
  2833  3777  3778    1
  2834  3777  3779    1
  2835  3777  3780    1
  2836  3781  3782    1
  2837  3781  3783    1
  2838  3781  3784    1
  2839  3785  3786    1
  2840  3785  3787    1
  2841  3785  3788    1
  2842  3789  3790    1
  2843  3789  3791    1
  2844  3789  3792    1
  2845  3793  3794    1
  2846  3793  3795    1
  2847  3793  3796    1
  2848  3797  3798    1
  2849  3797  3799    1
  2850  3797  3800    1
  2851  3801  3802    1
  2852  3801  3803    1
  2853  3801  3804    1
  2854  3805  3806    1
  2855  3805  3807    1
  2856  3805  3808    1
  2857  3809  3810    1
  2858  3809  3811    1
  2859  3809  3812    1
  2860  3813  3814    1
  2861  3813  3815    1
  2862  3813  3816    1
  2863  3817  3818    1
  2864  3817  3819    1
  2865  3817  3820    1
  2866  3821  3822    1
  2867  3821  3823    1
  2868  3821  3824    1
  2869  3825  3826    1
  2870  3825  3827    1
  2871  3825  3828    1
  2872  3829  3830    1
  2873  3829  3831    1
  2874  3829  3832    1
  2875  3833  3834    1
  2876  3833  3835    1
  2877  3833  3836    1
  2878  3837  3838    1
  2879  3837  3839    1
  2880  3837  3840    1
  2881  3841  3842    1
  2882  3841  3843    1
  2883  3841  3844    1
  2884  3845  3846    1
  2885  3845  3847    1
  2886  3845  3848    1
  2887  3849  3850    1
  2888  3849  3851    1
  2889  3849  3852    1
  2890  3853  3854    1
  2891  3853  3855    1
  2892  3853  3856    1
  2893  3857  3858    1
  2894  3857  3859    1
  2895  3857  3860    1
  2896  3861  3862    1
  2897  3861  3863    1
  2898  3861  3864    1
  2899  3865  3866    1
  2900  3865  3867    1
  2901  3865  3868    1
  2902  3869  3870    1
  2903  3869  3871    1
  2904  3869  3872    1
  2905  3873  3874    1
  2906  3873  3875    1
  2907  3873  3876    1
  2908  3877  3878    1
  2909  3877  3879    1
  2910  3877  3880    1
  2911  3881  3882    1
  2912  3881  3883    1
  2913  3881  3884    1
  2914  3885  3886    1
  2915  3885  3887    1
  2916  3885  3888    1
  2917  3889  3890    1
  2918  3889  3891    1
  2919  3889  3892    1
  2920  3893  3894    1
  2921  3893  3895    1
  2922  3893  3896    1
  2923  3897  3898    1
  2924  3897  3899    1
  2925  3897  3900    1
  2926  3901  3902    1
  2927  3901  3903    1
  2928  3901  3904    1
  2929  3905  3906    1
  2930  3905  3907    1
  2931  3905  3908    1
  2932  3909  3910    1
  2933  3909  3911    1
  2934  3909  3912    1
  2935  3913  3914    1
  2936  3913  3915    1
  2937  3913  3916    1
  2938  3917  3918    1
  2939  3917  3919    1
  2940  3917  3920    1
  2941  3921  3922    1
  2942  3921  3923    1
  2943  3921  3924    1
  2944  3925  3926    1
  2945  3925  3927    1
  2946  3925  3928    1
  2947  3929  3930    1
  2948  3929  3931    1
  2949  3929  3932    1
  2950  3933  3934    1
  2951  3933  3935    1
  2952  3933  3936    1
  2953  3937  3938    1
  2954  3937  3939    1
  2955  3937  3940    1
  2956  3941  3942    1
  2957  3941  3943    1
  2958  3941  3944    1
  2959  3945  3946    1
  2960  3945  3947    1
  2961  3945  3948    1
  2962  3949  3950    1
  2963  3949  3951    1
  2964  3949  3952    1
  2965  3953  3954    1
  2966  3953  3955    1
  2967  3953  3956    1
  2968  3957  3958    1
  2969  3957  3959    1
  2970  3957  3960    1
  2971  3961  3962    1
  2972  3961  3963    1
  2973  3961  3964    1
  2974  3965  3966    1
  2975  3965  3967    1
  2976  3965  3968    1
  2977  3969  3970    1
  2978  3969  3971    1
  2979  3969  3972    1
