@<TRIPOS>MOLECULE
*****
 228 171 0 0 0
SMALL
GASTEIGER

@<TRIPOS>ATOM
      1 N           1.4220   -0.5790    4.4902 N.3     1  UNL1       -0.3437
      2 H           1.1549   -0.1211    3.6200 H       1  UNL1        0.1146
      3 H           2.1038   -1.2919    4.2346 H       1  UNL1        0.1146
      4 H           1.9336    0.1184    5.0290 H       1  UNL1        0.1146
      5 N           1.6141   -0.8127   12.6065 N.3     2  UNL2       -0.3437
      6 H           0.8110   -0.5448   13.1736 H       2  UNL2        0.1146
      7 H           2.4128   -0.3157   12.9981 H       2  UNL2        0.1146
      8 H           1.7764   -1.8003   12.7982 H       2  UNL2        0.1146
      9 N           1.9926   -0.6211   21.6339 N.3     3  UNL3       -0.3437
     10 H           2.7893   -0.3202   21.0744 H       3  UNL3        0.1146
     11 H           1.1838   -0.1272   21.2594 H       3  UNL3        0.1146
     12 H           1.8486   -1.6050   21.4112 H       3  UNL3        0.1146
     13 N           0.6761    2.0237    1.3907 N.3     4  UNL4       -0.3437
     14 H           0.5631    2.8920    1.9119 H       4  UNL4        0.1146
     15 H           1.6637    1.9700    1.1453 H       4  UNL4        0.1146
     16 H           0.5114    1.2718    2.0584 H       4  UNL4        0.1146
     17 N           1.4729    3.1247    4.4069 N.3     5  UNL5       -0.3437
     18 H           1.9973    3.1097    3.5333 H       5  UNL5        0.1146
     19 H           1.5519    2.1871    4.7980 H       5  UNL5        0.1146
     20 H           1.9920    3.7359    5.0356 H       5  UNL5        0.1146
     21 N           0.4665    1.4084    7.0443 N.3     6  UNL6       -0.3437
     22 H           0.8342    0.6141    7.5662 H       6  UNL6        0.1146
     23 H          -0.1548    1.0170    6.3378 H       6  UNL6        0.1146
     24 H          -0.1317    1.9180    7.6930 H       6  UNL6        0.1146
     25 N           1.8987    1.1364    9.8671 N.3     7  UNL7       -0.3437
     26 H           0.9268    1.1805   10.1702 H       7  UNL7        0.1146
     27 H           2.1413    2.0784    9.5636 H       7  UNL7        0.1146
     28 H           2.4474    0.9622   10.7079 H       7  UNL7        0.1146
     29 N           0.6962    2.1940   12.8952 N.3     8  UNL8       -0.3437
     30 H           0.6940    3.0040   13.5135 H       8  UNL8        0.1146
     31 H           0.9463    2.5460   11.9721 H       8  UNL8        0.1146
     32 H           1.4778    1.6134   13.1956 H       8  UNL8        0.1146
     33 N           1.4676    2.6397   15.9889 N.3     9  UNL9       -0.3437
     34 H           1.8349    1.9724   15.3120 H       9  UNL9        0.1146
     35 H           1.9968    3.4996   15.8511 H       9  UNL9        0.1146
     36 H           0.5149    2.8456   15.6918 H       9  UNL9        0.1146
     37 N          -0.3410    0.2556   17.7533 N.3    10  UNL10      -0.3437
     38 H           0.1413    0.8424   18.4326 H      10  UNL10       0.1146
     39 H          -0.7744    0.8942   17.0879 H      10  UNL10       0.1146
     40 H           0.3884   -0.2347   17.2376 H      10  UNL10       0.1146
     41 N           0.5622    2.5331   21.2298 N.3    11  UNL11      -0.3437
     42 H           1.3056    2.9824   21.7624 H      11  UNL11       0.1146
     43 H           1.0268    1.9692   20.5194 H      11  UNL11       0.1146
     44 H           0.1196    1.8727   21.8673 H      11  UNL11       0.1146
     45 N           1.4931    1.5193   24.0899 N.3    12  UNL12      -0.3437
     46 H           2.1221    1.6016   23.2924 H      12  UNL12       0.1146
     47 H           1.9972    0.9776   24.7905 H      12  UNL12       0.1146
     48 H           1.4018    2.4589   24.4737 H      12  UNL12       0.1146
     49 N           0.5873    0.3243   26.6941 N.3    13  UNL13      -0.3437
     50 H           1.5802    0.3308   26.9231 H      13  UNL13       0.1146
     51 H           0.3420    1.2899   26.4800 H      13  UNL13       0.1146
     52 H           0.5048   -0.1875   25.8167 H      13  UNL13       0.1146
     53 N           1.4709    1.4635   29.8368 N.3    14  UNL14      -0.3437
     54 H           1.6081    2.4729   29.8104 H      14  UNL14       0.1146
     55 H           1.8509    1.1053   28.9618 H      14  UNL14       0.1146
     56 H           2.0843    1.1158   30.5725 H      14  UNL14       0.1146
     57 N           0.2185    0.7527   32.2857 N.3    15  UNL15      -0.3437
     58 H           1.1438    0.6906   32.7080 H      15  UNL15       0.1146
     59 H          -0.4462    0.5863   33.0400 H      15  UNL15       0.1146
     60 H           0.0981    1.7278   32.0153 H      15  UNL15       0.1146
     61 N           1.6920    1.3919   35.2884 N.3    16  UNL16      -0.3437
     62 H           0.9004    0.7507   35.3117 H      16  UNL16       0.1146
     63 H           1.9639    1.5380   36.2596 H      16  UNL16       0.1146
     64 H           2.4580    0.8768   34.8568 H      16  UNL16       0.1146
     65 N           1.8310    4.8119   18.6340 N.3    17  UNL17      -0.3437
     66 H           2.6345    4.2382   18.3819 H      17  UNL17       0.1146
     67 H           1.2572    4.8763   17.7943 H      17  UNL17       0.1146
     68 H           1.2915    4.2621   19.3012 H      17  UNL17       0.1146
     69 N           4.3398   -0.6626    1.3540 N.3    18  UNL18      -0.3437
     70 H           3.7648   -0.1658    2.0329 H      18  UNL18       0.1146
     71 H           5.2640   -0.2362    1.4031 H      18  UNL18       0.1146
     72 H           4.4476   -1.6090    1.7163 H      18  UNL18       0.1146
     73 N           4.5360   -0.5404    6.9777 N.3    19  UNL19      -0.3437
     74 H           3.5304   -0.6643    7.0861 H      19  UNL19       0.1146
     75 H           4.7812    0.2722    7.5415 H      19  UNL19       0.1146
     76 H           4.9686   -1.3411    7.4360 H      19  UNL19       0.1146
     77 N           4.4212   -0.8413    9.9686 N.3    20  UNL20      -0.3437
     78 H           3.5642   -0.2921    9.9203 H      20  UNL20       0.1146
     79 H           5.1288   -0.3019    9.4719 H      20  UNL20       0.1146
     80 H           4.7020   -0.8382   10.9481 H      20  UNL20       0.1146
     81 N           4.2112   -0.5531   15.8340 N.3    21  UNL21      -0.3437
     82 H           5.0628   -0.3056   16.3358 H      21  UNL21       0.1146
     83 H           4.3512   -0.2435   14.8733 H      21  UNL21       0.1146
     84 H           4.1909   -1.5714   15.8007 H      21  UNL21       0.1146
     85 N           4.2323   -0.5966   23.9798 N.3    22  UNL22      -0.3437
     86 H           4.1935   -0.0948   24.8658 H      22  UNL22       0.1146
     87 H           5.1488   -0.3949   23.5826 H      22  UNL22       0.1146
     88 H           4.2416   -1.5873   24.2183 H      22  UNL22       0.1146
     89 N           4.2510   -0.7512   29.5971 N.3    23  UNL23      -0.3437
     90 H           3.8662   -0.1587   30.3314 H      23  UNL23       0.1146
     91 H           5.0155   -0.2216   29.1807 H      23  UNL23       0.1146
     92 H           4.6834   -1.5422   30.0722 H      23  UNL23       0.1146
     93 N           4.3394   -0.9204   35.2316 N.3    24  UNL24      -0.3437
     94 H           4.2922   -0.2853   36.0271 H      24  UNL24       0.1146
     95 H           5.2716   -0.8065   34.8362 H      24  UNL24       0.1146
     96 H           4.3129   -1.8614   35.6216 H      24  UNL24       0.1146
     97 N           4.1601    2.3087    0.3318 N.3    25  UNL25      -0.3437
     98 H           4.6439    1.4357    0.1263 H      25  UNL25       0.1146
     99 H           4.5379    2.6370    1.2194 H      25  UNL25       0.1146
    100 H           4.4743    2.9761   -0.3712 H      25  UNL25       0.1146
    101 N           4.1684    2.3424    4.5194 N.3    26  UNL26      -0.3437
    102 H           4.6949    3.1093    4.9353 H      26  UNL26       0.1146
    103 H           4.3096    2.4180    3.5130 H      26  UNL26       0.1146
    104 H           4.6433    1.4877    4.8061 H      26  UNL26       0.1146
    105 N           3.3015    2.5147    7.4925 N.3    27  UNL27      -0.3437
    106 H           4.2732    2.5457    7.1872 H      27  UNL27       0.1146
    107 H           2.7429    2.7624    6.6770 H      27  UNL27       0.1146
    108 H           3.0986    1.5347    7.6846 H      27  UNL27       0.1146
    109 N           4.2350    2.1845    9.9531 N.3    28  UNL28      -0.3437
    110 H           3.8964    2.9545   10.5281 H      28  UNL28       0.1146
    111 H           4.8615    2.6014    9.2660 H      28  UNL28       0.1146
    112 H           4.8233    1.6171   10.5617 H      28  UNL28       0.1146
    113 N           4.4811    2.4678   12.6292 N.3    29  UNL29      -0.3437
    114 H           3.5093    2.3232   12.8997 H      29  UNL29       0.1146
    115 H           4.9024    3.0158   13.3779 H      29  UNL29       0.1146
    116 H           4.9233    1.5506   12.6695 H      29  UNL29       0.1146
    117 N           4.1831    2.3785   15.8224 N.3    30  UNL30      -0.3437
    118 H           4.7812    1.8191   16.4286 H      30  UNL30       0.1146
    119 H           4.6781    3.2564   15.6719 H      30  UNL30       0.1146
    120 H           4.1737    1.9034   14.9210 H      30  UNL30       0.1146
    121 N           2.7978    1.3183   18.6522 N.3    31  UNL31      -0.3437
    122 H           3.3386    2.1168   18.3230 H      31  UNL31       0.1146
    123 H           2.6728    0.7110   17.8435 H      31  UNL31       0.1146
    124 H           3.4070    0.8113   19.2927 H      31  UNL31       0.1146
    125 N           4.3082    2.4203   21.1007 N.3    32  UNL32      -0.3437
    126 H           3.6852    2.1531   21.8615 H      32  UNL32       0.1146
    127 H           4.9007    3.1625   21.4702 H      32  UNL32       0.1146
    128 H           4.9220    1.6216   20.9465 H      32  UNL32       0.1146
    129 N           4.1637    2.9905   24.1834 N.3    33  UNL33      -0.3437
    130 H           4.3756    2.0315   23.9116 H      33  UNL33       0.1146
    131 H           4.6589    3.1501   25.0596 H      33  UNL33       0.1146
    132 H           4.6180    3.5853   23.4918 H      33  UNL33       0.1146
    133 N           2.8643    2.2155   26.8433 N.3    34  UNL34      -0.3437
    134 H           2.6906    2.9844   26.1976 H      34  UNL34       0.1146
    135 H           3.8335    1.9377   26.6952 H      34  UNL34       0.1146
    136 H           2.8278    2.6199   27.7779 H      34  UNL34       0.1146
    137 N           4.1883    2.4633   29.7579 N.3    35  UNL35      -0.3437
    138 H           4.9395    3.1499   29.8109 H      35  UNL35       0.1146
    139 H           4.4388    1.8309   28.9991 H      35  UNL35       0.1146
    140 H           4.2496    1.9134   30.6136 H      35  UNL35       0.1146
    141 N           3.1613    2.4085   32.6991 N.3    36  UNL36      -0.3437
    142 H           4.1130    2.6985   32.4789 H      36  UNL36       0.1146
    143 H           3.2074    1.4065   32.8789 H      36  UNL36       0.1146
    144 H           2.9345    2.8438   33.5921 H      36  UNL36       0.1146
    145 N           4.7273    2.3116   35.5384 N.3    37  UNL37      -0.3437
    146 H           4.5819    3.2005   35.0618 H      37  UNL37       0.1146
    147 H           4.0077    2.2577   36.2579 H      37  UNL37       0.1146
    148 H           4.4992    1.5877   34.8584 H      37  UNL37       0.1146
    149 N           7.2233   -0.8061    3.7163 N.3    38  UNL38      -0.3437
    150 H           7.6554   -0.0207    4.2008 H      38  UNL38       0.1146
    151 H           6.3345   -0.4603    3.3574 H      38  UNL38       0.1146
    152 H           7.8049   -0.9865    2.8993 H      38  UNL38       0.1146
    153 N           7.1057   -0.9587   12.9203 N.3    39  UNL39      -0.3437
    154 H           7.2585   -0.5021   13.8184 H      39  UNL39       0.1146
    155 H           6.3280   -0.4661   12.4834 H      39  UNL39       0.1146
    156 H           7.9260   -0.7467   12.3542 H      39  UNL39       0.1146
    157 N           6.9306   -0.6451   18.3363 N.3    40  UNL40      -0.3437
    158 H           7.0272    0.1765   18.9313 H      40  UNL40       0.1146
    159 H           7.8318   -0.7664   17.8763 H      40  UNL40       0.1146
    160 H           6.8285   -1.4386   18.9675 H      40  UNL40       0.1146
    161 N           7.1563   -0.9628   21.3713 N.3    41  UNL41      -0.3437
    162 H           7.2285   -0.4856   22.2688 H      41  UNL41       0.1146
    163 H           6.3054   -0.6116   20.9341 H      41  UNL41       0.1146
    164 H           7.9279   -0.6136   20.8047 H      41  UNL41       0.1146
    165 N           7.4248   -0.6357   27.0936 N.3    42  UNL42      -0.3437
    166 H           6.6839   -0.4495   27.7680 H      42  UNL42       0.1146
    167 H           7.2564   -1.5781   26.7445 H      42  UNL42       0.1146
    168 H           7.2529   -0.0103   26.3077 H      42  UNL42       0.1146
    169 N           7.7042   -0.7196   32.7608 N.3    43  UNL43      -0.3437
    170 H           8.3317   -0.0853   33.2529 H      43  UNL43       0.1146
    171 H           7.5411   -0.3002   31.8465 H      43  UNL43       0.1146
    172 H           8.2411   -1.5684   32.5887 H      43  UNL43       0.1146
    173 N           7.0899    2.4850   -1.4393 N.3    44  UNL44      -0.3437
    174 H           6.3225    1.8980   -1.1155 H      44  UNL44       0.1146
    175 H           7.3129    3.1084   -0.6646 H      44  UNL44       0.1146
    176 H           7.8929    1.8661   -1.5418 H      44  UNL44       0.1146
    177 N           7.0121    1.5257    1.2823 N.3    45  UNL45      -0.3437
    178 H           7.5969    0.7055    1.1284 H      45  UNL45       0.1146
    179 H           6.3788    1.2805    2.0421 H      45  UNL45       0.1146
    180 H           7.6302    2.2458    1.6534 H      45  UNL45       0.1146
    181 N           7.1929    2.5602    4.2508 N.3    46  UNL46      -0.3437
    182 H           6.5547    1.8439    3.9072 H      46  UNL46       0.1146
    183 H           6.8086    2.8754    5.1404 H      46  UNL46       0.1146
    184 H           8.0619    2.0779    4.4754 H      46  UNL46       0.1146
    185 N           7.0362    1.0499    7.0667 N.3    47  UNL47      -0.3437
    186 H           6.3583    1.7200    7.4270 H      47  UNL47       0.1146
    187 H           7.7920    1.6032    6.6653 H      47  UNL47       0.1146
    188 H           7.4316    0.5843    7.8823 H      47  UNL47       0.1146
    189 N           7.2140    2.4344    9.8037 N.3    48  UNL48      -0.3437
    190 H           6.5895    3.0597   10.3111 H      48  UNL48       0.1146
    191 H           8.0496    2.3437   10.3797 H      48  UNL48       0.1146
    192 H           6.7650    1.5197    9.8144 H      48  UNL48       0.1146
    193 N           7.1760    2.2716   12.6517 N.3    49  UNL49      -0.3437
    194 H           6.6652    3.1378   12.4873 H      49  UNL49       0.1146
    195 H           8.0844    2.5472   13.0221 H      49  UNL49       0.1146
    196 H           6.6925    1.8009   13.4153 H      49  UNL49       0.1146
    197 N           7.0317    2.4178   15.9681 N.3    50  UNL50      -0.3437
    198 H           8.0484    2.3696   16.0156 H      50  UNL50       0.1146
    199 H           6.8162    3.0682   15.2138 H      50  UNL50       0.1146
    200 H           6.7218    1.5019   15.6463 H      50  UNL50       0.1146
    201 N           5.8062    2.4500   18.7977 N.3    51  UNL51      -0.3437
    202 H           6.7977    2.3591   18.5809 H      51  UNL51       0.1146
    203 H           5.4087    3.0273   18.0580 H      51  UNL51       0.1146
    204 H           5.4055    1.5211   18.6749 H      51  UNL51       0.1146
    205 N           7.4252    2.2239   21.0819 N.3    52  UNL52      -0.3437
    206 H           6.8651    1.5919   21.6523 H      52  UNL52       0.1146
    207 H           6.8845    3.0839   21.0021 H      52  UNL52       0.1146
    208 H           8.2434    2.4577   21.6426 H      52  UNL52       0.1146
    209 N           6.9848    2.4531   23.9480 N.3    53  UNL53      -0.3437
    210 H           7.7321    1.8631   23.5851 H      53  UNL53       0.1146
    211 H           6.4605    1.8725   24.6010 H      53  UNL53       0.1146
    212 H           7.4408    3.1687   24.5122 H      53  UNL53       0.1146
    213 N           6.3875    2.3270   27.2422 N.3    54  UNL54      -0.3437
    214 H           7.0463    2.4440   26.4737 H      54  UNL54       0.1146
    215 H           5.7296    3.1017   27.1685 H      54  UNL54       0.1146
    216 H           5.8546    1.4848   27.0296 H      54  UNL54       0.1146
    217 N           6.9847    1.4906   29.6065 N.3    55  UNL55      -0.3437
    218 H           6.4421    0.9710   30.2949 H      55  UNL55       0.1146
    219 H           7.6131    2.0906   30.1390 H      55  UNL55       0.1146
    220 H           7.5781    0.8053   29.1411 H      55  UNL55       0.1146
    221 N           6.9722    2.1083   32.6396 N.3    56  UNL56      -0.3437
    222 H           7.1297    2.5926   33.5222 H      56  UNL56       0.1146
    223 H           6.6219    2.8124   31.9915 H      56  UNL56       0.1146
    224 H           7.8943    1.8441   32.2957 H      56  UNL56       0.1146
    225 N           7.5049    2.2286   36.5859 N.3    57  UNL57      -0.3437
    226 H           7.6695    2.2306   35.5803 H      57  UNL57       0.1146
    227 H           6.9527    3.0623   36.7818 H      57  UNL57       0.1146
    228 H           6.8910    1.4360   36.7684 H      57  UNL57       0.1146
@<TRIPOS>BOND
     1     1     2    1
     2     1     3    1
     3     1     4    1
     4     5     6    1
     5     5     7    1
     6     5     8    1
     7     9    10    1
     8     9    11    1
     9     9    12    1
    10    13    14    1
    11    13    15    1
    12    13    16    1
    13    17    18    1
    14    17    19    1
    15    17    20    1
    16    21    22    1
    17    21    23    1
    18    21    24    1
    19    25    26    1
    20    25    27    1
    21    25    28    1
    22    29    30    1
    23    29    31    1
    24    29    32    1
    25    33    34    1
    26    33    35    1
    27    33    36    1
    28    37    38    1
    29    37    39    1
    30    37    40    1
    31    41    42    1
    32    41    43    1
    33    41    44    1
    34    45    46    1
    35    45    47    1
    36    45    48    1
    37    49    50    1
    38    49    51    1
    39    49    52    1
    40    53    54    1
    41    53    55    1
    42    53    56    1
    43    57    58    1
    44    57    59    1
    45    57    60    1
    46    61    62    1
    47    61    63    1
    48    61    64    1
    49    65    66    1
    50    65    67    1
    51    65    68    1
    52    69    70    1
    53    69    71    1
    54    69    72    1
    55    73    74    1
    56    73    75    1
    57    73    76    1
    58    77    78    1
    59    77    79    1
    60    77    80    1
    61    81    82    1
    62    81    83    1
    63    81    84    1
    64    85    86    1
    65    85    87    1
    66    85    88    1
    67    89    90    1
    68    89    91    1
    69    89    92    1
    70    93    94    1
    71    93    95    1
    72    93    96    1
    73    97    98    1
    74    97    99    1
    75    97   100    1
    76   101   102    1
    77   101   103    1
    78   101   104    1
    79   105   106    1
    80   105   107    1
    81   105   108    1
    82   109   110    1
    83   109   111    1
    84   109   112    1
    85   113   114    1
    86   113   115    1
    87   113   116    1
    88   117   118    1
    89   117   119    1
    90   117   120    1
    91   121   122    1
    92   121   123    1
    93   121   124    1
    94   125   126    1
    95   125   127    1
    96   125   128    1
    97   129   130    1
    98   129   131    1
    99   129   132    1
   100   133   134    1
   101   133   135    1
   102   133   136    1
   103   137   138    1
   104   137   139    1
   105   137   140    1
   106   141   142    1
   107   141   143    1
   108   141   144    1
   109   145   146    1
   110   145   147    1
   111   145   148    1
   112   149   150    1
   113   149   151    1
   114   149   152    1
   115   153   154    1
   116   153   155    1
   117   153   156    1
   118   157   158    1
   119   157   159    1
   120   157   160    1
   121   161   162    1
   122   161   163    1
   123   161   164    1
   124   165   166    1
   125   165   167    1
   126   165   168    1
   127   169   170    1
   128   169   171    1
   129   169   172    1
   130   173   174    1
   131   173   175    1
   132   173   176    1
   133   177   178    1
   134   177   179    1
   135   177   180    1
   136   181   182    1
   137   181   183    1
   138   181   184    1
   139   185   186    1
   140   185   187    1
   141   185   188    1
   142   189   190    1
   143   189   191    1
   144   189   192    1
   145   193   194    1
   146   193   195    1
   147   193   196    1
   148   197   198    1
   149   197   199    1
   150   197   200    1
   151   201   202    1
   152   201   203    1
   153   201   204    1
   154   205   206    1
   155   205   207    1
   156   205   208    1
   157   209   210    1
   158   209   211    1
   159   209   212    1
   160   213   214    1
   161   213   215    1
   162   213   216    1
   163   217   218    1
   164   217   219    1
   165   217   220    1
   166   221   222    1
   167   221   223    1
   168   221   224    1
   169   225   226    1
   170   225   227    1
   171   225   228    1
