@<TRIPOS>MOLECULE
*****
 1588 1191 0 0 0
SMALL
GASTEIGER

@<TRIPOS>ATOM
      1 N          -0.7510   -0.8128   -0.7737 N.3     1  UNL1       -0.3437
      2 H          -1.3931   -1.4914   -0.3669 H       1  UNL1        0.1146
      3 H          -0.2185   -0.4279    0.0052 H       1  UNL1        0.1146
      4 H          -0.0874   -1.3515   -1.3285 H       1  UNL1        0.1146
      5 N          -0.7927   -0.8094    2.4497 N.3     2  UNL2       -0.3437
      6 H          -1.2968   -1.5923    2.0358 H       2  UNL2        0.1146
      7 H          -0.2053   -1.2084    3.1805 H       2  UNL2        0.1146
      8 H          -0.1551   -0.4735    1.7292 H       2  UNL2        0.1146
      9 N          -0.7960   -0.8743    4.9930 N.3     3  UNL3       -0.3437
     10 H          -0.1324   -1.4585    5.4997 H       3  UNL3        0.1146
     11 H          -0.2359   -0.2541    4.4098 H       3  UNL3        0.1146
     12 H          -1.2855   -1.4967    4.3517 H       3  UNL3        0.1146
     13 N          -0.8187   -1.0891    7.7288 N.3     4  UNL4       -0.3437
     14 H          -1.1419   -1.2190    6.7712 H       4  UNL4        0.1146
     15 H           0.0230   -1.6561    7.8205 H       4  UNL4        0.1146
     16 H          -0.5123   -0.1194    7.7928 H       4  UNL4        0.1146
     17 N          -0.8359   -0.8643    9.9819 N.3     5  UNL5       -0.3437
     18 H          -0.3025   -1.3634   10.6923 H       5  UNL5        0.1146
     19 H          -0.1634   -0.2852    9.4810 H       5  UNL5        0.1146
     20 H          -1.1481   -1.5707    9.3172 H       5  UNL5        0.1146
     21 N          -0.6002   -0.8411   12.5672 N.3     6  UNL6       -0.3437
     22 H          -1.1676   -1.6705   12.7362 H       6  UNL6        0.1146
     23 H           0.3173   -1.1815   12.2831 H       6  UNL6        0.1146
     24 H          -0.9994   -0.3905   11.7450 H       6  UNL6        0.1146
     25 N          -0.7709   -0.8108   14.7879 N.3     7  UNL7       -0.3437
     26 H          -1.3521   -1.4896   15.2777 H       7  UNL7        0.1146
     27 H          -0.1299   -0.4350   15.4852 H       7  UNL7        0.1146
     28 H          -0.1970   -1.3482   14.1397 H       7  UNL7        0.1146
     29 N          -0.6567    1.8210   -0.6589 N.3     8  UNL8       -0.3437
     30 H          -1.5268    1.4301   -0.3005 H       8  UNL8        0.1146
     31 H          -0.1452    2.1604    0.1545 H       8  UNL8        0.1146
     32 H          -0.1212    1.0319   -1.0181 H       8  UNL8        0.1146
     33 N          -0.4200    1.4688    1.8354 N.3     9  UNL9       -0.3437
     34 H          -0.3323    1.2084    2.8167 H       9  UNL9        0.1146
     35 H          -1.3896    1.2851    1.5816 H       9  UNL9        0.1146
     36 H          -0.3080    2.4811    1.8024 H       9  UNL9        0.1146
     37 N          -0.8119    1.7549    4.6377 N.3    10  UNL10      -0.3437
     38 H          -0.0369    1.3909    5.1901 H      10  UNL10       0.1146
     39 H          -0.3928    2.3438    3.9194 H      10  UNL10       0.1146
     40 H          -1.2083    0.9539    4.1480 H      10  UNL10       0.1146
     41 N          -0.8116    1.6667    6.7273 N.3    11  UNL11      -0.3437
     42 H          -0.1153    2.4052    6.8175 H      11  UNL11       0.1146
     43 H          -0.2896    0.8075    6.5601 H      11  UNL11       0.1146
     44 H          -1.2333    1.5641    7.6493 H      11  UNL11       0.1146
     45 N          -0.8266    1.8077    9.4563 N.3    12  UNL12      -0.3437
     46 H          -0.2784    1.5887   10.2869 H      12  UNL12       0.1146
     47 H          -0.1595    2.1296    8.7563 H      12  UNL12       0.1146
     48 H          -1.1854    0.9176    9.1138 H      12  UNL12       0.1146
     49 N          -0.7749    1.6590   12.1103 N.3    13  UNL13      -0.3437
     50 H          -0.0850    0.9201   12.2388 H      13  UNL13       0.1146
     51 H          -0.2525    2.4829   11.8160 H      13  UNL13       0.1146
     52 H          -1.3374    1.3815   11.3072 H      13  UNL13       0.1146
     53 N          -0.7063    1.3784   14.1763 N.3    14  UNL14      -0.3437
     54 H          -1.4616    2.0137   14.4296 H      14  UNL14       0.1146
     55 H          -0.0220    1.9418   13.6736 H      14  UNL14       0.1146
     56 H          -0.2599    1.1096   15.0520 H      14  UNL14       0.1146
     57 N          -0.8194    1.5292   16.9923 N.3    15  UNL15      -0.3437
     58 H          -0.2447    0.7489   16.6771 H      15  UNL15       0.1146
     59 H          -0.1725    2.2194   17.3712 H      15  UNL15       0.1146
     60 H          -1.2132    1.9461   16.1500 H      15  UNL15       0.1146
     61 N          -0.7842    4.0135   -0.5289 N.3    16  UNL16      -0.3437
     62 H          -0.0003    4.1383   -1.1679 H      16  UNL16       0.1146
     63 H          -0.3768    3.9199    0.4004 H      16  UNL16       0.1146
     64 H          -1.2885    4.8990   -0.5266 H      16  UNL16       0.1146
     65 N          -0.7560    4.4113    2.2048 N.3    17  UNL17      -0.3437
     66 H          -0.2348    4.9582    1.5210 H      17  UNL17       0.1146
     67 H          -1.3810    3.8120    1.6676 H      17  UNL17       0.1146
     68 H          -0.0780    3.7892    2.6427 H      17  UNL17       0.1146
     69 N          -0.5395    4.4536    4.6676 N.3    18  UNL18      -0.3437
     70 H          -0.9283    3.6246    5.1149 H      18  UNL18       0.1146
     71 H           0.2561    4.1298    4.1193 H      18  UNL18       0.1146
     72 H          -1.2381    4.7627    3.9934 H      18  UNL18       0.1146
     73 N          -0.5188    4.4315    7.1458 N.3    19  UNL19      -0.3437
     74 H          -1.0038    3.6255    7.5375 H      19  UNL19       0.1146
     75 H           0.2424    4.0549    6.5827 H      19  UNL19       0.1146
     76 H          -1.1697    4.8587    6.4883 H      19  UNL19       0.1146
     77 N          -0.7767    4.1020    9.2017 N.3    20  UNL20      -0.3437
     78 H          -0.1270    4.7679    8.7859 H      20  UNL20       0.1146
     79 H          -0.2085    3.4667    9.7603 H      20  UNL20       0.1146
     80 H          -1.3377    4.6341    9.8654 H      20  UNL20       0.1146
     81 N          -0.7668    4.4655   11.9859 N.3    21  UNL21      -0.3437
     82 H          -1.3620    3.7206   11.6265 H      21  UNL21       0.1146
     83 H          -0.1381    4.0242   12.6555 H      21  UNL21       0.1146
     84 H          -0.1829    4.7602   11.2045 H      21  UNL21       0.1146
     85 N          -0.8250    4.1542   14.5182 N.3    22  UNL22      -0.3437
     86 H          -0.3698    3.3773   14.0411 H      22  UNL22       0.1146
     87 H          -0.0819    4.6697   14.9878 H      22  UNL22       0.1146
     88 H          -1.1731    4.7695   13.7843 H      22  UNL22       0.1146
     89 N          -0.5335    4.1048   17.0469 N.3    23  UNL23      -0.3437
     90 H          -0.7283    3.4584   16.2836 H      23  UNL23       0.1146
     91 H           0.1863    4.7382   16.7017 H      23  UNL23       0.1146
     92 H          -1.3744    4.6693   17.1584 H      23  UNL23       0.1146
     93 N          -0.8368    6.9802   -0.6166 N.3    24  UNL24      -0.3437
     94 H          -1.1483    6.3994    0.1607 H      24  UNL24       0.1146
     95 H          -0.2652    7.7167   -0.2053 H      24  UNL24       0.1146
     96 H          -0.1995    6.4015   -1.1618 H      24  UNL24       0.1146
     97 N          -0.8298    6.7415    1.8592 N.3    25  UNL25      -0.3437
     98 H          -1.1503    7.5592    2.3759 H      25  UNL25       0.1146
     99 H          -0.0771    7.0683    1.2550 H      25  UNL25       0.1146
    100 H          -0.3927    6.1287    2.5460 H      25  UNL25       0.1146
    101 N          -0.7909    6.7071    4.3078 N.3    26  UNL26      -0.3437
    102 H          -1.3023    7.3300    4.9315 H      26  UNL26       0.1146
    103 H          -0.1813    7.3050    3.7516 H      26  UNL26       0.1146
    104 H          -0.1754    6.1558    4.9042 H      26  UNL26       0.1146
    105 N          -0.7504    6.6895    6.7538 N.3    27  UNL27      -0.3437
    106 H          -1.3976    7.2527    7.3036 H      27  UNL27       0.1146
    107 H          -0.1440    7.3504    6.2702 H      27  UNL27       0.1146
    108 H          -0.1579    6.2053    7.4267 H      27  UNL27       0.1146
    109 N          -0.7859    6.7458    9.2015 N.3    28  UNL28      -0.3437
    110 H          -1.3144    7.2589    9.9056 H      28  UNL28       0.1146
    111 H          -0.1367    7.4169    8.7932 H      28  UNL28       0.1146
    112 H          -0.2128    6.0763    9.7130 H      28  UNL28       0.1146
    113 N          -0.8297    6.7143   11.7476 N.3    29  UNL29      -0.3437
    114 H          -1.1772    7.4870   12.3138 H      29  UNL29       0.1146
    115 H          -0.2143    7.1314   11.0507 H      29  UNL29       0.1146
    116 H          -0.2287    6.1651   12.3603 H      29  UNL29       0.1146
    117 N          -0.7982    6.7292   14.1547 N.3    30  UNL30      -0.3437
    118 H          -1.2684    7.4269   14.7296 H      30  UNL30       0.1146
    119 H          -0.0721    7.2293   13.6438 H      30  UNL30       0.1146
    120 H          -0.3112    6.1125   14.8034 H      30  UNL30       0.1146
    121 N          -0.8634    6.7736   16.6784 N.3    31  UNL31      -0.3437
    122 H          -1.0251    7.4435   17.4291 H      31  UNL31       0.1146
    123 H          -0.2685    7.2488   16.0012 H      31  UNL31       0.1146
    124 H          -0.2928    6.0320   17.0818 H      31  UNL31       0.1146
    125 N          -0.7895    9.6496   -0.6442 N.3    32  UNL32      -0.3437
    126 H          -0.2743   10.2794   -0.0308 H      32  UNL32       0.1146
    127 H          -0.0878    9.0817   -1.1169 H      32  UNL32       0.1146
    128 H          -1.2983    9.0143   -0.0311 H      32  UNL32       0.1146
    129 N          -0.6959    9.6386    1.7582 N.3    33  UNL33      -0.3437
    130 H          -0.1264   10.2408    2.3510 H      33  UNL33       0.1146
    131 H          -0.1415    8.7992    1.5954 H      33  UNL33       0.1146
    132 H          -1.4861    9.3464    2.3315 H      33  UNL33       0.1146
    133 N          -0.4276    9.3577    4.6503 N.3    34  UNL34      -0.3437
    134 H          -0.5222    8.9305    3.7301 H      34  UNL34       0.1146
    135 H          -0.1287   10.3178    4.4849 H      34  UNL34       0.1146
    136 H          -1.3713    9.4190    5.0299 H      34  UNL34       0.1146
    137 N          -0.8048    9.3975    6.7421 N.3    35  UNL35      -0.3437
    138 H          -1.2598    9.9034    7.5007 H      35  UNL35       0.1146
    139 H          -0.1432   10.0513    6.3258 H      35  UNL35       0.1146
    140 H          -0.2421    8.6728    7.1856 H      35  UNL35       0.1146
    141 N          -0.8129    9.3434    9.2595 N.3    36  UNL36      -0.3437
    142 H          -0.2205    9.8843    8.6312 H      36  UNL36       0.1146
    143 H          -0.1806    8.7801    9.8264 H      36  UNL36       0.1146
    144 H          -1.2359   10.0172    9.8962 H      36  UNL36       0.1146
    145 N          -0.8082    9.3553   11.7060 N.3    37  UNL37      -0.3437
    146 H          -1.2508   10.0096   12.3497 H      37  UNL37       0.1146
    147 H          -0.1694    9.9094   11.1374 H      37  UNL37       0.1146
    148 H          -0.2215    8.7507   12.2793 H      37  UNL37       0.1146
    149 N          -0.7343    9.3439   14.1180 N.3    38  UNL38      -0.3437
    150 H          -0.1846    8.7860   14.7698 H      38  UNL38       0.1146
    151 H          -1.4267    9.8342   14.6825 H      38  UNL38       0.1146
    152 H          -0.1042   10.0609   13.7612 H      38  UNL38       0.1146
    153 N          -0.8736    9.3695   16.7753 N.3    39  UNL39      -0.3437
    154 H          -0.0889    8.7604   16.5480 H      39  UNL39       0.1146
    155 H          -0.6925    9.7223   17.7140 H      39  UNL39       0.1146
    156 H          -0.7948   10.1728   16.1533 H      39  UNL39       0.1146
    157 N          -0.7727   12.2511   -0.3371 N.3    40  UNL40      -0.3437
    158 H          -0.3034   12.9671    0.2156 H      40  UNL40       0.1146
    159 H          -0.0399   11.6225   -0.6628 H      40  UNL40       0.1146
    160 H          -1.3338   11.7115    0.3204 H      40  UNL40       0.1146
    161 N          -0.4120   12.3546    1.9913 N.3    41  UNL41      -0.3437
    162 H          -0.1080   11.5830    1.3992 H      41  UNL41       0.1146
    163 H          -1.3011   12.6705    1.6063 H      41  UNL41       0.1146
    164 H          -0.6288   11.9440    2.8984 H      41  UNL41       0.1146
    165 N          -0.7921   12.2603    5.0140 N.3    42  UNL42      -0.3437
    166 H          -1.2694   11.5885    4.4145 H      42  UNL42       0.1146
    167 H          -0.0144   11.7560    5.4373 H      42  UNL42       0.1146
    168 H          -0.3740   12.9474    4.3884 H      42  UNL42       0.1146
    169 N          -0.4238   11.9852    7.4469 N.3    43  UNL43      -0.3437
    170 H          -1.0456   12.5808    7.9918 H      43  UNL43       0.1146
    171 H          -1.0284   11.3847    6.8881 H      43  UNL43       0.1146
    172 H           0.0480   12.6014    6.7865 H      43  UNL43       0.1146
    173 N          -0.8795   12.0158   10.4022 N.3    44  UNL44      -0.3437
    174 H          -0.2366   11.7748   11.1552 H      44  UNL44       0.1146
    175 H          -0.9123   13.0340   10.3762 H      44  UNL44       0.1146
    176 H          -0.4214   11.7275    9.5388 H      44  UNL44       0.1146
    177 N          -0.6281   12.2460   14.0581 N.3    45  UNL45      -0.3437
    178 H          -1.0424   11.3188   14.1413 H      45  UNL45       0.1146
    179 H          -1.1096   12.8310   14.7396 H      45  UNL45       0.1146
    180 H           0.3303   12.1564   14.3924 H      45  UNL45       0.1146
    181 N          -0.8780   12.0328   16.7214 N.3    46  UNL46      -0.3437
    182 H          -0.2296   12.0722   15.9364 H      46  UNL46       0.1146
    183 H          -0.4204   11.4681   17.4356 H      46  UNL46       0.1146
    184 H          -0.9219   12.9790   17.0972 H      46  UNL46       0.1146
    185 N          -0.7769   14.9113   -0.6565 N.3    47  UNL47      -0.3437
    186 H          -1.3362   14.4811    0.0787 H      47  UNL47       0.1146
    187 H          -0.1167   15.5267   -0.1836 H      47  UNL47       0.1146
    188 H          -0.2200   14.1602   -1.0616 H      47  UNL47       0.1146
    189 N          -0.8666   14.8382    1.8744 N.3    48  UNL48      -0.3437
    190 H          -1.0058   14.3075    2.7331 H      48  UNL48       0.1146
    191 H          -0.3260   15.6611    2.1373 H      48  UNL48       0.1146
    192 H          -0.2514   14.2726    1.2913 H      48  UNL48       0.1146
    193 N          -0.6792   14.9711    4.6798 N.3    49  UNL49      -0.3437
    194 H          -0.3066   15.3878    3.8277 H      49  UNL49       0.1146
    195 H          -1.4858   14.4185    4.3928 H      49  UNL49       0.1146
    196 H           0.0218   14.3019    4.9949 H      49  UNL49       0.1146
    197 N          -0.7742   14.6040    7.1222 N.3    50  UNL50      -0.3437
    198 H          -1.3396   15.0838    6.4233 H      50  UNL50       0.1146
    199 H          -0.0867   14.0604    6.6023 H      50  UNL50       0.1146
    200 H          -0.2494   15.3311    7.6063 H      50  UNL50       0.1146
    201 N          -0.8751   14.7449    9.5367 N.3    51  UNL51      -0.3437
    202 H          -0.7072   14.0057    8.8557 H      51  UNL51       0.1146
    203 H          -0.0952   14.7060   10.1915 H      51  UNL51       0.1146
    204 H          -0.7723   15.6227    9.0294 H      51  UNL51       0.1146
    205 N          -0.8504   14.6565   12.0020 N.3    52  UNL52      -0.3437
    206 H          -0.2574   15.1891   12.6368 H      52  UNL52       0.1146
    207 H          -1.0907   15.2919   11.2425 H      52  UNL52       0.1146
    208 H          -0.2513   13.9418   11.5912 H      52  UNL52       0.1146
    209 N          -0.7034   14.6158   14.5682 N.3    53  UNL53      -0.3437
    210 H          -0.1314   15.4204   14.8208 H      53  UNL53       0.1146
    211 H          -1.4762   14.9832   14.0149 H      53  UNL53       0.1146
    212 H          -0.1388   14.0598   13.9276 H      53  UNL53       0.1146
    213 N          -0.3842   14.9563   16.8206 N.3    54  UNL54      -0.3437
    214 H          -1.1927   15.3773   16.3651 H      54  UNL54       0.1146
    215 H          -0.7136   14.6231   17.7255 H      54  UNL54       0.1146
    216 H          -0.1593   14.1227   16.2793 H      54  UNL54       0.1146
    217 N          -0.8627   17.5402   -0.3813 N.3    55  UNL55      -0.3437
    218 H          -0.4941   16.9610    0.3717 H      55  UNL55       0.1146
    219 H          -0.1145   18.1851   -0.6316 H      55  UNL55       0.1146
    220 H          -0.9785   16.9202   -1.1817 H      55  UNL55       0.1146
    221 N          -0.7947   17.5883    2.1480 N.3    56  UNL56      -0.3437
    222 H          -1.2898   16.8368    1.6699 H      56  UNL56       0.1146
    223 H          -0.1381   17.1338    2.7810 H      56  UNL56       0.1146
    224 H          -0.2272   18.0476    1.4372 H      56  UNL56       0.1146
    225 N          -0.7714   17.2568    4.2709 N.3    57  UNL57      -0.3437
    226 H          -1.3461   17.6484    5.0157 H      57  UNL57       0.1146
    227 H          -0.2494   18.0390    3.8782 H      57  UNL57       0.1146
    228 H          -0.0830   16.6623    4.7303 H      57  UNL57       0.1146
    229 N          -0.8526   17.5432    7.0370 N.3    58  UNL58      -0.3437
    230 H          -1.0786   16.6839    6.5381 H      58  UNL58       0.1146
    231 H          -0.2185   17.2736    7.7878 H      58  UNL58       0.1146
    232 H          -0.3002   18.1057    6.3914 H      58  UNL58       0.1146
    233 N          -0.8163   17.5390   11.7039 N.3    59  UNL59      -0.3437
    234 H          -0.0480   17.1663   11.1478 H      59  UNL59       0.1146
    235 H          -1.1959   16.7490   12.2237 H      59  UNL59       0.1146
    236 H          -0.3897   18.1522   12.3970 H      59  UNL59       0.1146
    237 N          -0.8179   17.5379   14.1698 N.3    60  UNL60      -0.3437
    238 H          -0.2121   18.1901   14.6658 H      60  UNL60       0.1146
    239 H          -0.2002   16.9483   13.6136 H      60  UNL60       0.1146
    240 H          -1.2196   16.9302   14.8823 H      60  UNL60       0.1146
    241 N          -0.8303   17.2084   16.8488 N.3    61  UNL61      -0.3437
    242 H          -1.1215   17.9818   16.2526 H      61  UNL61       0.1146
    243 H          -0.0275   16.7841   16.3862 H      61  UNL61       0.1146
    244 H          -0.4706   17.6321   17.7029 H      61  UNL61       0.1146
    245 N          -0.8274   20.1574   -0.6164 N.3    62  UNL62      -0.3437
    246 H          -1.1856   19.5964    0.1553 H      62  UNL62       0.1146
    247 H          -0.2021   20.8444   -0.1976 H      62  UNL62       0.1146
    248 H          -0.2347   19.5354   -1.1643 H      62  UNL62       0.1146
    249 N          -0.7600   19.8765    1.8065 N.3    63  UNL63      -0.3437
    250 H          -0.1934   19.2935    2.4209 H      63  UNL63       0.1146
    251 H          -1.3765   20.4112    2.4167 H      63  UNL63       0.1146
    252 H          -0.1200   20.5525    1.3920 H      63  UNL63       0.1146
    253 N          -0.4274   20.2147    4.6161 N.3    64  UNL64      -0.3437
    254 H          -1.0044   19.6636    5.2499 H      64  UNL64       0.1146
    255 H           0.0575   19.5434    4.0223 H      64  UNL64       0.1146
    256 H          -1.0755   20.7119    4.0068 H      64  UNL64       0.1146
    257 N          -0.4778   20.2690    7.0557 N.3    65  UNL65      -0.3437
    258 H          -0.7495   19.5815    7.7570 H      65  UNL65       0.1146
    259 H           0.1087   19.7716    6.3870 H      65  UNL65       0.1146
    260 H          -1.3313   20.5115    6.5546 H      65  UNL65       0.1146
    261 N          -0.5846   20.2665    9.5829 N.3    66  UNL66      -0.3437
    262 H          -1.3946   20.3369    8.9687 H      66  UNL66       0.1146
    263 H          -0.6918   19.3891   10.0898 H      66  UNL66       0.1146
    264 H           0.2212   20.1411    8.9718 H      66  UNL66       0.1146
    265 N          -0.7680   20.2435   12.0061 N.3    67  UNL67      -0.3437
    266 H          -1.3592   19.5326   11.5777 H      67  UNL67       0.1146
    267 H          -0.1376   19.7446   12.6322 H      67  UNL67       0.1146
    268 H          -0.1850   20.6130   11.2564 H      67  UNL67       0.1146
    269 N          -0.5546   20.2425   14.5337 N.3    68  UNL68      -0.3437
    270 H          -1.1079   19.4750   14.9120 H      68  UNL68       0.1146
    271 H           0.2896   19.8184   14.1516 H      68  UNL68       0.1146
    272 H          -1.0769   20.5978   13.7341 H      68  UNL68       0.1146
    273 N          -0.8179   22.8403   -0.5762 N.3    69  UNL69      -0.3437
    274 H          -1.1990   22.2159    0.1332 H      69  UNL69       0.1146
    275 H          -0.0729   23.3638   -0.1187 H      69  UNL69       0.1146
    276 H          -0.3600   22.2408   -1.2613 H      69  UNL69       0.1146
    277 N          -0.7966   22.5638    1.8012 N.3    70  UNL70      -0.3437
    278 H          -1.1728   23.3667    2.3035 H      70  UNL70       0.1146
    279 H           0.0995   22.8652    1.4209 H      70  UNL70       0.1146
    280 H          -0.5799   21.8651    2.5105 H      70  UNL70       0.1146
    281 N          -0.8240   22.5223    4.3247 N.3    71  UNL71      -0.3437
    282 H          -1.1969   23.1298    5.0529 H      71  UNL71       0.1146
    283 H          -0.2541   23.1184    3.7261 H      71  UNL71       0.1146
    284 H          -0.1749   21.8904    4.7914 H      71  UNL71       0.1146
    285 N          -0.7835   22.8892    6.8495 N.3    72  UNL72      -0.3437
    286 H          -1.3157   22.0453    7.0568 H      72  UNL72       0.1146
    287 H          -0.2594   23.1059    7.6962 H      72  UNL72       0.1146
    288 H          -0.0912   22.6204    6.1518 H      72  UNL72       0.1146
    289 N          -0.8480   22.6900    9.5802 N.3    73  UNL73      -0.3437
    290 H          -0.0838   22.1724   10.0120 H      73  UNL73       0.1146
    291 H          -0.4595   23.5931    9.3122 H      73  UNL73       0.1146
    292 H          -1.0586   22.2052    8.7090 H      73  UNL73       0.1146
    293 N          -0.8002   22.5208   11.6912 N.3    74  UNL74      -0.3437
    294 H          -1.2725   23.0193   12.4440 H      74  UNL74       0.1146
    295 H          -0.2486   23.2192   11.1947 H      74  UNL74       0.1146
    296 H          -0.1286   21.9015   12.1425 H      74  UNL74       0.1146
    297 N          -0.7800   22.5079   14.1470 N.3    75  UNL75      -0.3437
    298 H          -1.3282   23.1193   14.7504 H      75  UNL75       0.1146
    299 H          -0.1159   23.1115   13.6643 H      75  UNL75       0.1146
    300 H          -0.2257   21.9221   14.7698 H      75  UNL75       0.1146
    301 N          -0.8671   22.6029   16.6610 N.3    76  UNL76      -0.3437
    302 H          -1.0034   22.9541   17.6079 H      76  UNL76       0.1146
    303 H          -0.3218   23.3128   16.1740 H      76  UNL76       0.1146
    304 H          -0.2575   21.7910   16.7476 H      76  UNL76       0.1146
    305 N          -0.7874   25.1606    1.8137 N.3    77  UNL77      -0.3437
    306 H          -1.3115   25.6767    2.5189 H      77  UNL77       0.1146
    307 H          -0.1619   25.8367    1.3777 H      77  UNL77       0.1146
    308 H          -0.1890   24.5140    2.3258 H      77  UNL77       0.1146
    309 N          -0.7677   25.1720    4.2555 N.3    78  UNL78      -0.3437
    310 H          -1.3601   25.6122    4.9581 H      78  UNL78       0.1146
    311 H          -0.1367   25.9002    3.9238 H      78  UNL78       0.1146
    312 H          -0.1854   24.5035    4.7579 H      78  UNL78       0.1146
    313 N          -0.8488   25.1396    7.0207 N.3    79  UNL79      -0.3437
    314 H          -1.0981   26.0121    6.5571 H      79  UNL79       0.1146
    315 H          -0.2477   24.6371    6.3691 H      79  UNL79       0.1146
    316 H          -0.2552   25.3991    7.8073 H      79  UNL79       0.1146
    317 N          -0.8762   25.1984   11.7782 N.3    80  UNL80      -0.3437
    318 H          -0.3595   24.5055   12.3180 H      80  UNL80       0.1146
    319 H          -0.9455   26.0231   12.3727 H      80  UNL80       0.1146
    320 H          -0.2686   25.4610   11.0035 H      80  UNL80       0.1146
    321 N          -0.4425   25.2464   14.0964 N.3    81  UNL81      -0.3437
    322 H          -0.4522   24.4642   14.7494 H      81  UNL81       0.1146
    323 H          -1.4164   25.4203   13.8520 H      81  UNL81       0.1146
    324 H          -0.1388   26.0571   14.6337 H      81  UNL81       0.1146
    325 N          -0.4196   25.4076   16.6028 N.3    82  UNL82      -0.3437
    326 H          -0.0082   24.6942   17.2029 H      82  UNL82       0.1146
    327 H          -1.2238   24.9692   16.1561 H      82  UNL82       0.1146
    328 H          -0.7983   26.1169   17.2288 H      82  UNL82       0.1146
    329 N          -0.8125   28.0599   -0.2821 N.3    83  UNL83      -0.3437
    330 H          -1.2337   27.4250   -0.9588 H      83  UNL83       0.1146
    331 H          -0.1388   27.5043    0.2429 H      83  UNL83       0.1146
    332 H          -0.2648   28.7260   -0.8251 H      83  UNL83       0.1146
    333 N          -0.5638   28.1051    1.7768 N.3    84  UNL84      -0.3437
    334 H          -1.5342   27.8015    1.8446 H      84  UNL84       0.1146
    335 H          -0.3475   28.5546    2.6654 H      84  UNL84       0.1146
    336 H          -0.0044   27.2539    1.7492 H      84  UNL84       0.1146
    337 N          -0.8196   27.9482    4.6837 N.3    85  UNL85      -0.3437
    338 H          -0.6192   28.8452    4.2438 H      85  UNL85       0.1146
    339 H          -1.0822   27.3171    3.9279 H      85  UNL85       0.1146
    340 H           0.0712   27.6046    5.0397 H      85  UNL85       0.1146
    341 N          -0.8131   28.0231    7.1340 N.3    86  UNL86      -0.3437
    342 H          -0.0818   27.4570    7.5620 H      86  UNL86       0.1146
    343 H          -0.3351   28.7879    6.6599 H      86  UNL86       0.1146
    344 H          -1.2198   27.4471    6.3983 H      86  UNL86       0.1146
    345 N          -0.8480   27.8788    9.2319 N.3    87  UNL87      -0.3437
    346 H          -1.0975   28.2614   10.1428 H      87  UNL87       0.1146
    347 H          -0.1935   28.5415    8.8186 H      87  UNL87       0.1146
    348 H          -0.3108   27.0336    9.4199 H      87  UNL87       0.1146
    349 N          -0.8297   28.0602   14.1815 N.3    88  UNL88      -0.3437
    350 H          -1.1070   27.1581   14.5658 H      88  UNL88       0.1146
    351 H          -0.5088   28.6160   14.9730 H      88  UNL88       0.1146
    352 H          -0.0044   27.8809   13.6113 H      88  UNL88       0.1146
    353 N          -0.8830   28.0439   16.7671 N.3    89  UNL89      -0.3437
    354 H          -0.7081   27.6924   17.7075 H      89  UNL89       0.1146
    355 H          -0.1436   28.7190   16.5776 H      89  UNL89       0.1146
    356 H          -0.7152   27.2597   16.1384 H      89  UNL89       0.1146
    357 N          -0.8246   30.6834   -0.2905 N.3    90  UNL90      -0.3437
    358 H          -1.1963   30.1272   -1.0591 H      90  UNL90       0.1146
    359 H          -0.2219   30.0583    0.2427 H      90  UNL90       0.1146
    360 H          -0.2071   31.3734   -0.7161 H      90  UNL90       0.1146
    361 N          -0.7203   30.4526    2.2622 N.3    91  UNL91      -0.3437
    362 H          -1.4491   30.6661    1.5827 H      91  UNL91       0.1146
    363 H          -0.0837   29.8066    1.7977 H      91  UNL91       0.1146
    364 H          -0.1968   31.3170    2.3935 H      91  UNL91       0.1146
    365 N          -0.7827   30.7365    4.6394 N.3    92  UNL92      -0.3437
    366 H          -1.3211   30.1656    3.9894 H      92  UNL92       0.1146
    367 H          -0.2311   30.0846    5.1954 H      92  UNL92       0.1146
    368 H          -0.1150   31.2555    4.0709 H      92  UNL92       0.1146
    369 N          -0.8668   30.6903    9.3268 N.3    93  UNL93      -0.3437
    370 H          -0.2357   30.5636    8.5368 H      93  UNL93       0.1146
    371 H          -1.0023   29.7641    9.7294 H      93  UNL93       0.1146
    372 H          -0.3451   31.2244   10.0203 H      93  UNL93       0.1146
    373 N          -0.4043   30.7629   11.8123 N.3    94  UNL94      -0.3437
    374 H          -0.2046   30.2116   12.6457 H      94  UNL94       0.1146
    375 H          -0.5166   30.0931   11.0526 H      94  UNL94       0.1146
    376 H          -1.3243   31.1747   11.9618 H      94  UNL94       0.1146
    377 N          -0.7701   30.7300   14.5168 N.3    95  UNL95      -0.3437
    378 H          -0.0814   30.1567   15.0019 H      95  UNL95       0.1146
    379 H          -0.2496   31.2730   13.8294 H      95  UNL95       0.1146
    380 H          -1.3488   30.0826   13.9834 H      95  UNL95       0.1146
    381 N          -0.4471   30.3916   16.9751 N.3    96  UNL96      -0.3437
    382 H          -1.1327   30.9462   17.4857 H      96  UNL96       0.1146
    383 H          -0.9761   29.8486   16.2941 H      96  UNL96       0.1146
    384 H           0.1061   31.0560   16.4357 H      96  UNL96       0.1146
    385 N           1.9362   -0.8808   -0.1734 N.3    97  UNL97      -0.3437
    386 H           2.4197   -1.4249    0.5397 H      97  UNL97       0.1146
    387 H           1.3250   -1.5353   -0.6597 H      97  UNL97       0.1146
    388 H           1.3210   -0.2427    0.3294 H      97  UNL97       0.1146
    389 N           1.6465   -0.8338    2.6776 N.3    98  UNL98      -0.3437
    390 H           0.9268   -1.4529    2.3073 H      98  UNL98       0.1146
    391 H           2.3810   -1.4411    3.0382 H      98  UNL98       0.1146
    392 H           2.0476   -0.3559    1.8720 H      98  UNL98       0.1146
    393 N           1.9065   -0.9064    4.7151 N.3    99  UNL99      -0.3437
    394 H           1.1009   -1.4440    4.3984 H      99  UNL99       0.1146
    395 H           1.5390   -0.1945    5.3450 H      99  UNL99       0.1146
    396 H           2.4555   -1.5387    5.2958 H      99  UNL99       0.1146
    397 N           1.9120   -0.8007    7.5165 N.3   100  UNL100     -0.3437
    398 H           0.9539   -0.5213    7.3107 H     100  UNL100      0.1146
    399 H           1.8427   -1.6010    8.1434 H     100  UNL100      0.1146
    400 H           2.2934   -1.1607    6.6428 H     100  UNL100      0.1146
    401 N           1.4762   -1.1313    9.9943 N.3   101  UNL101     -0.3437
    402 H           1.6191   -0.4386    9.2607 H     101  UNL101      0.1146
    403 H           2.1881   -1.8457    9.8484 H     101  UNL101      0.1146
    404 H           1.7184   -0.6681   10.8690 H     101  UNL101      0.1146
    405 N           1.5746   -1.2582   14.3211 N.3   102  UNL102     -0.3437
    406 H           1.0653   -0.4001   14.5276 H     102  UNL102      0.1146
    407 H           2.0671   -1.0886   13.4452 H     102  UNL102      0.1146
    408 H           2.2949   -1.3367   15.0376 H     102  UNL102      0.1146
    409 N           1.5524   -0.8980   16.9794 N.3   103  UNL103     -0.3437
    410 H           2.1689   -1.5553   17.4550 H     103  UNL103      0.1146
    411 H           2.1615   -0.2109   16.5375 H     103  UNL103      0.1146
    412 H           1.1191   -1.4195   16.2187 H     103  UNL103      0.1146
    413 N           1.4929    1.6005   -0.3111 N.3   104  UNL104     -0.3437
    414 H           1.5614    2.4016   -0.9372 H     104  UNL104      0.1146
    415 H           1.6533    0.7773   -0.8898 H     104  UNL104      0.1146
    416 H           2.2942    1.6641    0.3151 H     104  UNL104      0.1146
    417 N           1.5217    1.7030    2.1720 N.3   105  UNL105     -0.3437
    418 H           1.9190    2.4439    1.5962 H     105  UNL105      0.1146
    419 H           1.2713    0.9521    1.5302 H     105  UNL105      0.1146
    420 H           2.2898    1.3445    2.7376 H     105  UNL105      0.1146
    421 N           1.5513    1.7482    4.6437 N.3   106  UNL106     -0.3437
    422 H           1.1369    1.0266    4.0556 H     106  UNL106      0.1146
    423 H           2.2796    1.2850    5.1855 H     106  UNL106      0.1146
    424 H           2.0340    2.3839    4.0103 H     106  UNL106      0.1146
    425 N           1.4888    1.5458    7.0596 N.3   107  UNL107     -0.3437
    426 H           2.1755    1.8530    7.7470 H     107  UNL107      0.1146
    427 H           1.4287    2.2929    6.3692 H     107  UNL107      0.1146
    428 H           1.9088    0.7519    6.5784 H     107  UNL107      0.1146
    429 N           1.5532    1.6626    9.6173 N.3   108  UNL108     -0.3437
    430 H           1.1663    1.1178    8.8480 H     108  UNL108      0.1146
    431 H           2.3663    1.1444    9.9474 H     108  UNL108      0.1146
    432 H           1.9160    2.5187    9.2006 H     108  UNL108      0.1146
    433 N           1.5606    1.5253   11.6583 N.3   109  UNL109     -0.3437
    434 H           1.0939    1.8950   12.4853 H     109  UNL109      0.1146
    435 H           2.1936    2.2584   11.3417 H     109  UNL109      0.1146
    436 H           2.1538    0.7647   11.9870 H     109  UNL109      0.1146
    437 N           1.5848    1.5302   14.1017 N.3   110  UNL110     -0.3437
    438 H           1.0340    1.9254   14.8626 H     110  UNL110      0.1146
    439 H           2.2793    2.2362   13.8616 H     110  UNL110      0.1146
    440 H           2.1038    0.7518   14.5056 H     110  UNL110      0.1146
    441 N           1.5297    1.7829   16.7024 N.3   111  UNL111     -0.3437
    442 H           1.1990    0.9465   17.1814 H     111  UNL111      0.1146
    443 H           2.1445    2.2591   17.3609 H     111  UNL111      0.1146
    444 H           2.1286    1.4551   15.9459 H     111  UNL111      0.1146
    445 N           1.8990    4.4061   -0.1695 N.3   112  UNL112     -0.3437
    446 H           1.2700    4.9609   -0.7482 H     112  UNL112      0.1146
    447 H           1.3199    3.6916    0.2694 H     112  UNL112      0.1146
    448 H           2.5129    3.9121   -0.8156 H     112  UNL112      0.1146
    449 N           1.9464    4.3730    2.5276 N.3   113  UNL113     -0.3437
    450 H           1.0884    4.9127    2.4232 H     113  UNL113      0.1146
    451 H           1.6609    3.4529    2.8597 H     113  UNL113      0.1146
    452 H           2.3061    4.2321    1.5847 H     113  UNL113      0.1146
    453 N           1.9610    4.4494    5.2070 N.3   114  UNL114     -0.3437
    454 H           1.0321    4.8134    5.4144 H     114  UNL114      0.1146
    455 H           2.1104    3.6759    5.8534 H     114  UNL114      0.1146
    456 H           1.8984    4.0320    4.2795 H     114  UNL114      0.1146
    457 N           1.5491    4.4148    7.9094 N.3   115  UNL115     -0.3437
    458 H           1.2077    3.4704    7.7368 H     115  UNL115      0.1146
    459 H           2.3983    4.3098    8.4629 H     115  UNL115      0.1146
    460 H           1.8468    4.7757    7.0042 H     115  UNL115      0.1146
    461 N           1.5672    4.1314   10.4466 N.3   116  UNL116     -0.3437
    462 H           1.1135    4.2788    9.5462 H     116  UNL116      0.1146
    463 H           2.3663    3.5264   10.2627 H     116  UNL116      0.1146
    464 H           1.9548    5.0342   10.7169 H     116  UNL116      0.1146
    465 N           1.8337    4.1827   12.4851 N.3   117  UNL117     -0.3437
    466 H           1.3504    3.4030   12.0414 H     117  UNL117      0.1146
    467 H           2.6200    4.4083   11.8773 H     117  UNL117      0.1146
    468 H           1.1977    4.9767   12.4277 H     117  UNL117      0.1146
    469 N           1.9182    4.0853   14.4869 N.3   118  UNL118     -0.3437
    470 H           2.4680    4.6183   15.1593 H     118  UNL118      0.1146
    471 H           1.2879    3.5040   15.0375 H     118  UNL118      0.1146
    472 H           1.3278    4.7630   14.0068 H     118  UNL118      0.1146
    473 N           1.5419    6.9832   -0.6348 N.3   119  UNL119     -0.3437
    474 H           1.1549    6.4527    0.1444 H     119  UNL119      0.1146
    475 H           2.1226    7.7100   -0.2188 H     119  UNL119      0.1146
    476 H           2.1824    6.3519   -1.1138 H     119  UNL119      0.1146
    477 N           1.5782    6.6966    1.8476 N.3   120  UNL120     -0.3437
    478 H           1.0454    7.3747    2.3904 H     120  UNL120      0.1146
    479 H           2.2269    7.2392    1.2792 H     120  UNL120      0.1146
    480 H           2.1513    6.1874    2.5189 H     120  UNL120      0.1146
    481 N           1.5721    6.7156    4.2996 N.3   121  UNL121     -0.3437
    482 H           1.0605    7.2977    4.9613 H     121  UNL121      0.1146
    483 H           2.1736    7.3490    3.7749 H     121  UNL121      0.1146
    484 H           2.1955    6.1356    4.8594 H     121  UNL121      0.1146
    485 N           1.5646    6.6892    6.8024 N.3   122  UNL122     -0.3437
    486 H           1.0819    7.3967    7.3546 H     122  UNL122      0.1146
    487 H           2.1602    7.1990    6.1515 H     122  UNL122      0.1146
    488 H           2.1951    6.2129    7.4458 H     122  UNL122      0.1146
    489 N           1.5644    6.7748    9.1964 N.3   123  UNL123     -0.3437
    490 H           1.0826    7.1861    9.9946 H     123  UNL123      0.1146
    491 H           2.1937    7.4957    8.8462 H     123  UNL123      0.1146
    492 H           2.1612    6.0413    9.5761 H     123  UNL123      0.1146
    493 N           1.5687    6.6969   11.7170 N.3   124  UNL124     -0.3437
    494 H           1.0700    7.3610   12.3075 H     124  UNL124      0.1146
    495 H           2.1684    7.2551   11.1110 H     124  UNL124      0.1146
    496 H           2.1947    6.1849   12.3369 H     124  UNL124      0.1146
    497 N           1.5747    6.7306   14.1437 N.3   125  UNL125     -0.3437
    498 H           1.0568    7.3282   14.7864 H     125  UNL125      0.1146
    499 H           2.2456    7.3375   13.6747 H     125  UNL125      0.1146
    500 H           2.1248    6.1015   14.7267 H     125  UNL125      0.1146
    501 N           1.4950    7.0231   16.7964 N.3   126  UNL126     -0.3437
    502 H           1.9354    7.0041   17.7151 H     126  UNL126      0.1146
    503 H           2.1859    7.4213   16.1619 H     126  UNL126      0.1146
    504 H           1.3856    6.0493   16.5171 H     126  UNL126      0.1146
    505 N           1.9142    9.5905   -0.2245 N.3   127  UNL127     -0.3437
    506 H           1.1312    8.9958    0.0429 H     127  UNL127      0.1146
    507 H           2.4472    9.0606   -0.9127 H     127  UNL127      0.1146
    508 H           1.5093   10.3781   -0.7287 H     127  UNL127      0.1146
    509 N           1.5676    9.4053    2.2182 N.3   128  UNL128     -0.3437
    510 H           2.1765   10.1505    2.5533 H     128  UNL128      0.1146
    511 H           1.0730    9.7872    1.4133 H     128  UNL128      0.1146
    512 H           2.1847    8.6820    1.8513 H     128  UNL128      0.1146
    513 N           1.9915    9.4655    4.3076 N.3   129  UNL129     -0.3437
    514 H           1.4944   10.3245    4.0767 H     129  UNL129      0.1146
    515 H           2.2038    9.5226    5.3026 H     129  UNL129      0.1146
    516 H           1.3122    8.7125    4.2082 H     129  UNL129      0.1146
    517 N           1.5486    9.6240    7.1196 N.3   130  UNL130     -0.3437
    518 H           2.1752   10.3217    6.7207 H     130  UNL130      0.1146
    519 H           1.1314    9.1361    6.3283 H     130  UNL130      0.1146
    520 H           2.1466    8.9432    7.5857 H     130  UNL130      0.1146
    521 N           1.6062    9.3974    9.1694 N.3   131  UNL131     -0.3437
    522 H           1.8245    8.6848    9.8642 H     131  UNL131      0.1146
    523 H           1.0756   10.1155    9.6606 H     131  UNL131      0.1146
    524 H           2.4955    9.8273    8.9190 H     131  UNL131      0.1146
    525 N           1.5521    9.3155   11.7603 N.3   132  UNL132     -0.3437
    526 H           1.1533    9.9511   12.4497 H     132  UNL132      0.1146
    527 H           1.9638    9.9059   11.0389 H     132  UNL132      0.1146
    528 H           2.3327    8.8525   12.2236 H     132  UNL132      0.1146
    529 N           1.5318    9.4267   14.1505 N.3   133  UNL133     -0.3437
    530 H           2.0170    8.6277   14.5560 H     133  UNL133      0.1146
    531 H           1.2052    9.9858   14.9374 H     133  UNL133      0.1146
    532 H           2.2478    9.9848   13.6876 H     133  UNL133      0.1146
    533 N           1.9387    9.7331   16.8196 N.3   134  UNL134     -0.3437
    534 H           0.9922   10.0278   16.5836 H     134  UNL134      0.1146
    535 H           1.8597    9.2014   17.6852 H     134  UNL134      0.1146
    536 H           2.2113    9.0628   16.1021 H     134  UNL134      0.1146
    537 N           1.5090   12.0072    0.0248 N.3   135  UNL135     -0.3437
    538 H           2.1367   11.3519    0.4885 H     135  UNL135      0.1146
    539 H           1.2906   12.7237    0.7156 H     135  UNL135      0.1146
    540 H           2.0656   12.4694   -0.6928 H     135  UNL135      0.1146
    541 N           1.5039   12.1818    2.6309 N.3   136  UNL136     -0.3437
    542 H           1.3613   11.5552    1.8401 H     136  UNL136      0.1146
    543 H           2.2555   11.7708    3.1829 H     136  UNL136      0.1146
    544 H           1.8811   13.0444    2.2412 H     136  UNL136      0.1146
    545 N           1.8548   12.0298    4.8091 N.3   137  UNL137     -0.3437
    546 H           2.5242   12.6333    5.2845 H     137  UNL137      0.1146
    547 H           1.6105   11.3001    5.4772 H     137  UNL137      0.1146
    548 H           1.0123   12.5890    4.6834 H     137  UNL137      0.1146
    549 N           1.5784   11.9435    7.2622 N.3   138  UNL138     -0.3437
    550 H           2.3978   11.5104    7.6859 H     138  UNL138      0.1146
    551 H           1.0922   12.4239    8.0180 H     138  UNL138      0.1146
    552 H           1.9334   12.6744    6.6473 H     138  UNL138      0.1146
    553 N           1.5348   12.0049    9.8410 N.3   139  UNL139     -0.3437
    554 H           1.1856   12.5332   10.6393 H     139  UNL139      0.1146
    555 H           2.0647   12.6670    9.2760 H     139  UNL139      0.1146
    556 H           2.2167   11.3471   10.2161 H     139  UNL139      0.1146
    557 N           1.4925   12.2796   12.6109 N.3   140  UNL140     -0.3437
    558 H           1.8240   11.8866   13.4907 H     140  UNL140      0.1146
    559 H           2.2397   12.8852   12.2745 H     140  UNL140      0.1146
    560 H           1.4456   11.5008   11.9554 H     140  UNL140      0.1146
    561 N           1.4959   12.2854   16.7679 N.3   141  UNL141     -0.3437
    562 H           1.9107   12.0305   15.8727 H     141  UNL141      0.1146
    563 H           1.3889   11.4145   17.2860 H     141  UNL141      0.1146
    564 H           2.2063   12.8218   17.2640 H     141  UNL141      0.1146
    565 N           1.5602   14.9271   -0.6183 N.3   142  UNL142     -0.3437
    566 H           1.0990   14.2263   -0.0398 H     142  UNL142      0.1146
    567 H           2.1042   15.5051    0.0207 H     142  UNL142      0.1146
    568 H           2.2385   14.4208   -1.1856 H     142  UNL142      0.1146
    569 N           1.5781   14.9169    1.8192 N.3   143  UNL143     -0.3437
    570 H           1.0447   14.3666    2.4907 H     143  UNL143      0.1146
    571 H           2.1729   15.5336    2.3708 H     143  UNL143      0.1146
    572 H           2.2061   14.2622    1.3553 H     143  UNL143      0.1146
    573 N           1.5500   14.7514    4.2573 N.3   144  UNL144     -0.3437
    574 H           1.2363   15.3279    5.0368 H     144  UNL144      0.1146
    575 H           2.4313   15.1567    3.9451 H     144  UNL144      0.1146
    576 H           1.7842   13.8433    4.6559 H     144  UNL144      0.1146
    577 N           1.4931   14.8669    6.8304 N.3   145  UNL145     -0.3437
    578 H           1.3742   14.1910    7.5836 H     145  UNL145      0.1146
    579 H           2.0672   15.6164    7.2136 H     145  UNL145      0.1146
    580 H           2.0674   14.4050    6.1266 H     145  UNL145      0.1146
    581 N           1.5690   14.9777    9.2973 N.3   146  UNL146     -0.3437
    582 H           1.1351   14.0564    9.3320 H     146  UNL146      0.1146
    583 H           1.8838   15.1759   10.2460 H     146  UNL146      0.1146
    584 H           2.4139   14.8693    8.7380 H     146  UNL146      0.1146
    585 N           1.7330   14.6417   12.1339 N.3   147  UNL147     -0.3437
    586 H           1.2375   15.5312   12.0917 H     147  UNL147      0.1146
    587 H           1.3389   14.0652   11.3919 H     147  UNL147      0.1146
    588 H           2.6925   14.8412   11.8549 H     147  UNL147      0.1146
    589 N           1.5674   14.6190   14.5092 N.3   148  UNL148     -0.3437
    590 H           1.0744   15.2297   13.8594 H     148  UNL148      0.1146
    591 H           2.1517   14.0120   13.9360 H     148  UNL148      0.1146
    592 H           2.2084   15.2186   15.0269 H     148  UNL148      0.1146
    593 N           1.5061   14.6305   16.8885 N.3   149  UNL149     -0.3437
    594 H           1.3039   15.4926   16.3843 H     149  UNL149      0.1146
    595 H           2.0722   14.0632   16.2592 H     149  UNL149      0.1146
    596 H           2.1197   14.8929   17.6586 H     149  UNL149      0.1146
    597 N           1.5130   17.4934   -0.3055 N.3   150  UNL150     -0.3437
    598 H           2.2046   17.0394    0.2894 H     150  UNL150      0.1146
    599 H           2.0019   18.2552   -0.7735 H     150  UNL150      0.1146
    600 H           1.2823   16.8186   -1.0334 H     150  UNL150      0.1146
    601 N           1.5544   17.5371    2.1839 N.3   151  UNL151     -0.3437
    602 H           1.1261   16.8371    1.5798 H     151  UNL151      0.1146
    603 H           2.2796   17.0497    2.7082 H     151  UNL151      0.1146
    604 H           2.0418   18.1826    1.5642 H     151  UNL151      0.1146
    605 N           1.5888   17.2899    4.2530 N.3   152  UNL152     -0.3437
    606 H           2.1951   16.5958    4.6878 H     152  UNL152      0.1146
    607 H           1.0177   17.6741    5.0044 H     152  UNL152      0.1146
    608 H           2.2002   18.0466    3.9500 H     152  UNL152      0.1146
    609 N           1.5598   17.5809    7.0759 N.3   153  UNL153     -0.3437
    610 H           2.2263   17.1504    7.7152 H     153  UNL153      0.1146
    611 H           2.1169   18.0629    6.3719 H     153  UNL153      0.1146
    612 H           1.0988   16.8122    6.5912 H     153  UNL153      0.1146
    613 N           1.5773   17.5437    9.5962 N.3   154  UNL154     -0.3437
    614 H           1.0476   16.9870    8.9271 H     154  UNL154      0.1146
    615 H           2.2245   16.8992   10.0480 H     154  UNL154      0.1146
    616 H           2.1524   18.1766    9.0420 H     154  UNL154      0.1146
    617 N           1.8937   17.4741   12.1163 N.3   155  UNL155     -0.3437
    618 H           0.9397   17.1603   12.2891 H     155  UNL155      0.1146
    619 H           2.3491   16.7198   11.6043 H     155  UNL155      0.1146
    620 H           1.8194   18.2523   11.4627 H     155  UNL155      0.1146
    621 N           1.5873   17.5147   14.1139 N.3   156  UNL156     -0.3437
    622 H           1.0213   17.1181   14.8628 H     156  UNL156      0.1146
    623 H           2.1903   18.2080   14.5545 H     156  UNL156      0.1146
    624 H           2.2030   16.7657   13.8004 H     156  UNL156      0.1146
    625 N           1.9286   17.6367   16.7786 N.3   157  UNL157     -0.3437
    626 H           0.9481   17.8724   16.6324 H     157  UNL157      0.1146
    627 H           1.9750   17.1796   17.6882 H     157  UNL157      0.1146
    628 H           2.1502   16.9177   16.0914 H     157  UNL157      0.1146
    629 N           1.5922   20.2829   -0.1056 N.3   158  UNL158     -0.3437
    630 H           1.0120   19.4523   -0.2148 H     158  UNL158      0.1146
    631 H           2.1443   20.1309    0.7373 H     158  UNL158      0.1146
    632 H           2.2534   20.2675   -0.8808 H     158  UNL158      0.1146
    633 N           1.5252   20.0619    2.7881 N.3   159  UNL159     -0.3437
    634 H           1.2194   20.0024    1.8179 H     159  UNL159      0.1146
    635 H           2.0805   19.2249    2.9594 H     159  UNL159      0.1146
    636 H           2.1766   20.8444    2.8298 H     159  UNL159      0.1146
    637 N           1.5658   19.9528    4.7222 N.3   160  UNL160     -0.3437
    638 H           1.9563   19.1565    5.2240 H     160  UNL160      0.1146
    639 H           1.1168   20.5361    5.4269 H     160  UNL160      0.1146
    640 H           2.3629   20.4882    4.3811 H     160  UNL160      0.1146
    641 N           1.5759   20.2612    7.3325 N.3   161  UNL161     -0.3437
    642 H           1.0573   19.4699    7.7110 H     161  UNL161      0.1146
    643 H           2.2727   20.5026    8.0357 H     161  UNL161      0.1146
    644 H           2.0961   19.9001    6.5341 H     161  UNL161      0.1146
    645 N           1.5551   20.2459   10.3045 N.3   162  UNL162     -0.3437
    646 H           1.9730   19.8329    9.4720 H     162  UNL162      0.1146
    647 H           1.1417   19.4730   10.8243 H     162  UNL162      0.1146
    648 H           2.3321   20.5819   10.8717 H     162  UNL162      0.1146
    649 N           1.8567   20.1080   13.0985 N.3   163  UNL163     -0.3437
    650 H           1.4413   19.1776   13.0872 H     163  UNL163      0.1146
    651 H           2.5734   20.1043   12.3741 H     163  UNL163      0.1146
    652 H           1.1305   20.7437   12.7717 H     163  UNL163      0.1146
    653 N          -0.5141   19.8168   16.9425 N.3   164  UNL164     -0.3437
    654 H           0.0263   20.4200   17.5610 H     164  UNL164      0.1146
    655 H          -1.1536   20.4306   16.4398 H     164  UNL164      0.1146
    656 H           0.1433   19.4662   16.2473 H     164  UNL164      0.1146
    657 N           1.5718   22.5562   -0.2470 N.3   165  UNL165     -0.3437
    658 H           1.0668   22.8609   -1.0779 H     165  UNL165      0.1146
    659 H           2.2606   21.8781   -0.5698 H     165  UNL165      0.1146
    660 H           2.1026   23.3656    0.0717 H     165  UNL165      0.1146
    661 N           1.9400   22.5773    2.2181 N.3   166  UNL166     -0.3437
    662 H           1.5248   21.7979    1.7096 H     166  UNL166      0.1146
    663 H           2.3770   23.1708    1.5145 H     166  UNL166      0.1146
    664 H           1.1601   23.1148    2.5938 H     166  UNL166      0.1146
    665 N           1.5731   22.5445    4.2704 N.3   167  UNL167     -0.3437
    666 H           2.0615   21.8475    4.8308 H     167  UNL167      0.1146
    667 H           1.0703   23.1346    4.9318 H     167  UNL167      0.1146
    668 H           2.2970   23.1341    3.8621 H     167  UNL167      0.1146
    669 N           1.5165   22.8016    7.0571 N.3   168  UNL168     -0.3437
    670 H           1.2781   21.9049    6.6359 H     168  UNL168      0.1146
    671 H           2.2466   22.6057    7.7404 H     168  UNL168      0.1146
    672 H           1.9606   23.3486    6.3208 H     168  UNL168      0.1146
    673 N           1.5861   22.8244    9.5905 N.3   169  UNL169     -0.3437
    674 H           1.0350   22.3974    8.8473 H     169  UNL169      0.1146
    675 H           2.0779   22.0595   10.0503 H     169  UNL169      0.1146
    676 H           2.3028   23.3795    9.1252 H     169  UNL169      0.1146
    677 N           1.5688   22.5527   11.6638 N.3   170  UNL170     -0.3437
    678 H           1.0700   23.0090   12.4262 H     170  UNL170      0.1146
    679 H           2.2033   23.2538   11.2839 H     170  UNL170      0.1146
    680 H           2.1598   21.8454   12.0985 H     170  UNL170      0.1146
    681 N           1.5625   22.5207   14.1564 N.3   171  UNL171     -0.3437
    682 H           1.0943   23.1854   14.7707 H     171  UNL171      0.1146
    683 H           2.2561   23.0577   13.6379 H     171  UNL171      0.1146
    684 H           2.0890   21.8970   14.7665 H     171  UNL171      0.1146
    685 N           1.4759   22.7682   16.8346 N.3   172  UNL172     -0.3437
    686 H           2.0009   22.7236   17.7068 H     172  UNL172      0.1146
    687 H           2.0305   23.3430   16.2019 H     172  UNL172      0.1146
    688 H           1.4945   21.8259   16.4471 H     172  UNL172      0.1146
    689 N          -0.1667   25.2891   -0.4116 N.3   173  UNL173     -0.3437
    690 H           0.3573   24.8361    0.3358 H     173  UNL173      0.1146
    691 H           0.1969   26.2390   -0.4738 H     173  UNL173      0.1146
    692 H           0.1143   24.8238   -1.2735 H     173  UNL173      0.1146
    693 N           1.5930   25.1874    1.7841 N.3   174  UNL174     -0.3437
    694 H           1.0098   25.6158    2.5015 H     174  UNL174      0.1146
    695 H           2.2516   25.9076    1.4905 H     174  UNL174      0.1146
    696 H           2.1474   24.4771    2.2600 H     174  UNL174      0.1146
    697 N           1.5694   25.1299    4.3104 N.3   175  UNL175     -0.3437
    698 H           1.0679   25.7630    4.9318 H     175  UNL175      0.1146
    699 H           2.1811   25.7171    3.7452 H     175  UNL175      0.1146
    700 H           2.1833   24.5779    4.9077 H     175  UNL175      0.1146
    701 N           1.5503   25.1481    6.7800 N.3   176  UNL176     -0.3437
    702 H           1.1260   25.7614    7.4744 H     176  UNL176      0.1146
    703 H           2.1449   25.7436    6.2053 H     176  UNL176      0.1146
    704 H           2.1807   24.5348    7.2946 H     176  UNL176      0.1146
    705 N           1.5544   25.1007    9.3015 N.3   177  UNL177     -0.3437
    706 H           2.1993   25.4234    8.5815 H     177  UNL177      0.1146
    707 H           2.1345   24.7259   10.0507 H     177  UNL177      0.1146
    708 H           1.1137   25.9380    9.6796 H     177  UNL177      0.1146
    709 N           1.5419   25.4634   11.9953 N.3   178  UNL178     -0.3437
    710 H           1.1555   24.6774   11.4745 H     178  UNL178      0.1146
    711 H           2.1911   25.0614   12.6700 H     178  UNL178      0.1146
    712 H           2.1133   25.9857   11.3326 H     178  UNL178      0.1146
    713 N           1.5024   25.3010   14.4935 N.3   179  UNL179     -0.3437
    714 H           2.3393   25.4437   15.0571 H     179  UNL179      0.1146
    715 H           1.5196   26.0252   13.7768 H     179  UNL179      0.1146
    716 H           1.6405   24.4181   14.0040 H     179  UNL179      0.1146
    717 N           1.5181   25.4046   16.9453 N.3   180  UNL180     -0.3437
    718 H           1.2522   24.7284   16.2308 H     180  UNL180      0.1146
    719 H           2.1829   24.9261   17.5514 H     180  UNL180      0.1146
    720 H           2.0486   26.1288   16.4631 H     180  UNL180      0.1146
    721 N           1.4917   28.0485   -0.5336 N.3   181  UNL181     -0.3437
    722 H           1.3833   27.1719   -0.0255 H     181  UNL181      0.1146
    723 H           2.0417   28.6573    0.0707 H     181  UNL181      0.1146
    724 H           2.0852   27.8373   -1.3346 H     181  UNL181      0.1146
    725 N           1.9579   27.8498    1.8138 N.3   182  UNL182     -0.3437
    726 H           1.1174   28.2161    1.3692 H     182  UNL182      0.1146
    727 H           2.2756   28.5755    2.4547 H     182  UNL182      0.1146
    728 H           1.6510   27.0737    2.3984 H     182  UNL182      0.1146
    729 N           1.9534   28.0069    4.2735 N.3   183  UNL183     -0.3437
    730 H           1.7211   28.7636    4.9153 H     183  UNL183      0.1146
    731 H           2.2546   27.2271    4.8562 H     183  UNL183      0.1146
    732 H           1.0728   27.7175    3.8502 H     183  UNL183      0.1146
    733 N           1.9631   27.8388    7.1232 N.3   184  UNL184     -0.3437
    734 H           1.3732   27.0739    6.7985 H     184  UNL184      0.1146
    735 H           2.3321   28.2845    6.2844 H     184  UNL184      0.1146
    736 H           1.3335   28.5180    7.5482 H     184  UNL184      0.1146
    737 N           1.5400   27.9742    9.2008 N.3   185  UNL185     -0.3437
    738 H           1.1609   27.7980   10.1300 H     185  UNL185      0.1146
    739 H           2.1696   28.7693    9.3004 H     185  UNL185      0.1146
    740 H           2.1313   27.1736    8.9821 H     185  UNL185      0.1146
    741 N          -0.4187   27.7685   11.6863 N.3   186  UNL186     -0.3437
    742 H          -0.9619   28.2871   12.3750 H     186  UNL186      0.1146
    743 H           0.1441   28.4605   11.1935 H     186  UNL186      0.1146
    744 H           0.2384   27.1991   12.2177 H     186  UNL186      0.1146
    745 N           1.5681   27.7801   14.1539 N.3   187  UNL187     -0.3437
    746 H           2.1490   27.1662   14.7233 H     187  UNL187      0.1146
    747 H           1.0725   28.3841   14.8081 H     187  UNL187      0.1146
    748 H           2.2122   28.3848   13.6461 H     187  UNL187      0.1146
    749 N           1.5557   28.1216   16.9085 N.3   188  UNL188     -0.3437
    750 H           1.1152   27.3977   16.3425 H     188  UNL188      0.1146
    751 H           2.0809   27.6320   17.6316 H     188  UNL188      0.1146
    752 H           2.2501   28.5639   16.3080 H     188  UNL188      0.1146
    753 N           1.5574   30.6649   -0.2577 N.3   189  UNL189     -0.3437
    754 H           1.1104   30.1249   -0.9973 H     189  UNL189      0.1146
    755 H           2.2543   30.0486    0.1580 H     189  UNL189      0.1146
    756 H           2.0798   31.4039   -0.7260 H     189  UNL189      0.1146
    757 N           1.5723   30.4900    1.7839 N.3   190  UNL190     -0.3437
    758 H           2.5549   30.3149    1.5787 H     190  UNL190      0.1146
    759 H           1.3643   29.9636    2.6313 H     190  UNL190      0.1146
    760 H           1.5103   31.4738    2.0422 H     190  UNL190      0.1146
    761 N           1.5974   30.7015    4.6838 N.3   191  UNL191     -0.3437
    762 H           2.4221   30.2269    5.0485 H     191  UNL191      0.1146
    763 H           1.9337   31.3279    3.9538 H     191  UNL191      0.1146
    764 H           1.0486   29.9860    4.2091 H     191  UNL191      0.1146
    765 N           1.8891   30.5367    7.1985 N.3   192  UNL192     -0.3437
    766 H           0.8856   30.6829    7.2989 H     192  UNL192      0.1146
    767 H           1.9952   29.7063    6.6175 H     192  UNL192      0.1146
    768 H           2.2320   31.3164    6.6393 H     192  UNL192      0.1146
    769 N           1.5219   30.6677    9.5571 N.3   193  UNL193     -0.3437
    770 H           1.2421   29.9678    8.8713 H     193  UNL193      0.1146
    771 H           2.2191   30.2181   10.1489 H     193  UNL193      0.1146
    772 H           2.0188   31.3887    9.0360 H     193  UNL193      0.1146
    773 N           1.5374   30.6561   12.0494 N.3   194  UNL194     -0.3437
    774 H           2.2133   30.0546   12.5181 H     194  UNL194      0.1146
    775 H           2.0762   31.4174   11.6388 H     194  UNL194      0.1146
    776 H           1.1750   30.1143   11.2661 H     194  UNL194      0.1146
    777 N           1.5234   30.5163   14.1489 N.3   195  UNL195     -0.3437
    778 H           1.2471   30.9856   15.0102 H     195  UNL195      0.1146
    779 H           2.2570   31.0921   13.7382 H     195  UNL195      0.1146
    780 H           1.9743   29.6482   14.4342 H     195  UNL195      0.1146
    781 N           1.9980   30.4192   16.8760 N.3   196  UNL196     -0.3437
    782 H           2.1812   31.2729   16.3506 H     196  UNL196      0.1146
    783 H           1.4330   30.6980   17.6769 H     196  UNL196      0.1146
    784 H           1.3896   29.8522   16.2871 H     196  UNL196      0.1146
    785 N           3.9840   -0.8163   -0.1963 N.3   197  UNL197     -0.3437
    786 H           4.6168   -1.4195    0.3271 H     197  UNL197      0.1146
    787 H           4.5399   -0.4111   -0.9482 H     197  UNL197      0.1146
    788 H           3.3127   -1.4368   -0.6466 H     197  UNL197      0.1146
    789 N           3.9263   -0.8516    2.1278 N.3   198  UNL198     -0.3437
    790 H           4.5425   -1.4015    2.7246 H     198  UNL198      0.1146
    791 H           4.5365   -0.3101    1.5171 H     198  UNL198      0.1146
    792 H           3.4483   -1.5204    1.5256 H     198  UNL198      0.1146
    793 N           3.8863   -0.8856    4.9458 N.3   199  UNL199     -0.3437
    794 H           4.3284   -1.5852    5.5402 H     199  UNL199      0.1146
    795 H           4.6262   -0.2397    4.6742 H     199  UNL199      0.1146
    796 H           3.6126   -1.3732    4.0940 H     199  UNL199      0.1146
    797 N           3.8932   -1.1688    7.3980 N.3   200  UNL200     -0.3437
    798 H           3.5599   -0.4435    8.0313 H     200  UNL200      0.1146
    799 H           4.5028   -0.6998    6.7296 H     200  UNL200      0.1146
    800 H           4.4976   -1.7716    7.9544 H     200  UNL200      0.1146
    801 N           3.8742   -0.8663    9.9474 N.3   201  UNL201     -0.3437
    802 H           4.3544   -1.2848   10.7428 H     201  UNL201      0.1146
    803 H           4.5698   -0.2974    9.4668 H     201  UNL201      0.1146
    804 H           3.6550   -1.6351    9.3154 H     201  UNL201      0.1146
    805 N           4.3668   -0.8711   14.3064 N.3   202  UNL202     -0.3437
    806 H           3.5920   -0.2841   14.6123 H     202  UNL202      0.1146
    807 H           4.4272   -1.6312   14.9823 H     202  UNL202      0.1146
    808 H           4.0675   -1.2973   13.4305 H     202  UNL202      0.1146
    809 N           3.9518   -0.8326   16.9583 N.3   203  UNL203     -0.3437
    810 H           3.3803   -1.4694   16.4049 H     203  UNL203      0.1146
    811 H           4.5552   -1.4218   17.5303 H     203  UNL203      0.1146
    812 H           4.5662   -0.3598   16.2970 H     203  UNL203      0.1146
    813 N           3.8725    1.4591   -0.5353 N.3   204  UNL204     -0.3437
    814 H           3.6884    2.4535   -0.4102 H     204  UNL204      0.1146
    815 H           4.6225    1.3966   -1.2223 H     204  UNL204      0.1146
    816 H           4.2702    1.1343    0.3449 H     204  UNL204      0.1146
    817 N           4.2459    1.4453    2.2150 N.3   205  UNL205     -0.3437
    818 H           4.9023    1.8338    1.5393 H     205  UNL205      0.1146
    819 H           3.7460    2.2405    2.6101 H     205  UNL205      0.1146
    820 H           3.5593    0.9239    1.6717 H     205  UNL205      0.1146
    821 N           3.9245    1.7985    4.6021 N.3   206  UNL206     -0.3437
    822 H           3.4536    1.0486    4.0979 H     206  UNL206      0.1146
    823 H           4.5426    1.3421    5.2715 H     206  UNL206      0.1146
    824 H           4.5329    2.2543    3.9236 H     206  UNL206      0.1146
    825 N           3.8868    1.6584    7.1223 N.3   207  UNL207     -0.3437
    826 H           3.8502    0.7408    6.6808 H     207  UNL207      0.1146
    827 H           4.7908    1.7094    7.5898 H     207  UNL207      0.1146
    828 H           3.9257    2.3350    6.3613 H     207  UNL207      0.1146
    829 N           4.3632    1.5684    9.2511 N.3   208  UNL208     -0.3437
    830 H           4.4899    1.4555   10.2559 H     208  UNL208      0.1146
    831 H           3.6247    0.9180    8.9863 H     208  UNL208      0.1146
    832 H           3.9757    2.5017    9.1200 H     208  UNL208      0.1146
    833 N           4.2997    1.5884   12.0965 N.3   209  UNL209     -0.3437
    834 H           3.3325    1.7216   12.3885 H     209  UNL209      0.1146
    835 H           4.3023    0.7603   11.5027 H     209  UNL209      0.1146
    836 H           4.5190    2.3733   11.4848 H     209  UNL209      0.1146
    837 N           3.9222    1.7444   14.5146 N.3   210  UNL210     -0.3437
    838 H           4.6455    1.2283   15.0135 H     210  UNL210      0.1146
    839 H           4.4128    2.3998   13.9078 H     210  UNL210      0.1146
    840 H           3.4730    1.0711   13.8956 H     210  UNL210      0.1146
    841 N           3.8794    1.7585   16.9019 N.3   211  UNL211     -0.3437
    842 H           3.6175    0.9808   16.2978 H     211  UNL211      0.1146
    843 H           4.4545    1.3582   17.6417 H     211  UNL211      0.1146
    844 H           4.5021    2.3461   16.3492 H     211  UNL211      0.1146
    845 N           3.9187    4.4493    0.1768 N.3   212  UNL212     -0.3437
    846 H           3.4862    3.6820    0.6892 H     212  UNL212      0.1146
    847 H           4.6497    4.8162    0.7846 H     212  UNL212      0.1146
    848 H           4.3989    4.0232   -0.6145 H     212  UNL212      0.1146
    849 N           3.8895    4.0736    2.4419 N.3   213  UNL213     -0.3437
    850 H           3.5806    4.8522    1.8616 H     213  UNL213      0.1146
    851 H           4.5667    3.5574    1.8822 H     213  UNL213      0.1146
    852 H           4.4168    4.4874    3.2095 H     213  UNL213      0.1146
    853 N           3.9494    4.0431    5.0823 N.3   214  UNL214     -0.3437
    854 H           4.3400    4.7520    5.7014 H     214  UNL214      0.1146
    855 H           3.4216    4.5497    4.3729 H     214  UNL214      0.1146
    856 H           4.7425    3.6258    4.5975 H     214  UNL214      0.1146
    857 N           3.9826    4.0410    7.5754 N.3   215  UNL215     -0.3437
    858 H           4.4975    4.7398    8.1091 H     215  UNL215      0.1146
    859 H           3.3191    4.5590    7.0009 H     215  UNL215      0.1146
    860 H           4.6542    3.6309    6.9280 H     215  UNL215      0.1146
    861 N           4.2915    4.2085   10.1347 N.3   216  UNL216     -0.3437
    862 H           4.7483    4.6815   10.9131 H     216  UNL216      0.1146
    863 H           3.9523    3.3217   10.5049 H     216  UNL216      0.1146
    864 H           3.4614    4.7589    9.9197 H     216  UNL216      0.1146
    865 N           4.2698    4.4416   14.4855 N.3   217  UNL217     -0.3437
    866 H           3.8639    3.7198   15.0793 H     217  UNL217      0.1146
    867 H           4.8288    3.9509   13.7890 H     217  UNL217      0.1146
    868 H           3.4909    4.8583   13.9776 H     217  UNL217      0.1146
    869 N           4.0748    4.4394   17.0149 N.3   218  UNL218     -0.3437
    870 H           4.6299    3.6356   17.3051 H     218  UNL218      0.1146
    871 H           4.5532    4.8340   16.2063 H     218  UNL218      0.1146
    872 H           3.1957    4.0617   16.6643 H     218  UNL218      0.1146
    873 N           3.9387    6.8394   -0.6916 N.3   219  UNL219     -0.3437
    874 H           3.4156    6.8981    0.1809 H     219  UNL219      0.1146
    875 H           4.5007    7.6881   -0.7398 H     219  UNL219      0.1146
    876 H           4.5985    6.0721   -0.5724 H     219  UNL219      0.1146
    877 N           3.9428    6.7165    1.8264 N.3   220  UNL220     -0.3437
    878 H           3.4041    7.3248    2.4413 H     220  UNL220      0.1146
    879 H           4.5942    7.3237    1.3310 H     220  UNL220      0.1146
    880 H           4.5124    6.1328    2.4374 H     220  UNL220      0.1146
    881 N           3.9337    6.7308    4.2882 N.3   221  UNL221     -0.3437
    882 H           3.4278    7.3049    4.9612 H     221  UNL221      0.1146
    883 H           4.5749    7.3604    3.8077 H     221  UNL221      0.1146
    884 H           4.5171    6.1018    4.8380 H     221  UNL221      0.1146
    885 N           3.9167    6.7346    6.7679 N.3   222  UNL222     -0.3437
    886 H           3.4776    7.3271    7.4711 H     222  UNL222      0.1146
    887 H           4.5378    7.3429    6.2362 H     222  UNL222      0.1146
    888 H           4.5215    6.0933    7.2790 H     222  UNL222      0.1146
    889 N           3.9447    6.7849    9.1777 N.3   223  UNL223     -0.3437
    890 H           3.3984    7.0747    9.9876 H     223  UNL223      0.1146
    891 H           4.5344    7.5805    8.9374 H     223  UNL223      0.1146
    892 H           4.5761    6.0577    9.5105 H     223  UNL223      0.1146
    893 N           3.8838    6.7468   11.7325 N.3   224  UNL224     -0.3437
    894 H           3.6026    7.5002   12.3583 H     224  UNL224      0.1146
    895 H           4.5489    7.1580   11.0790 H     224  UNL224      0.1146
    896 H           4.4181    6.0928   12.3026 H     224  UNL224      0.1146
    897 N           3.9689    6.7116   14.1329 N.3   225  UNL225     -0.3437
    898 H           3.3423    7.1897   14.7788 H     225  UNL225      0.1146
    899 H           4.5430    7.4387   13.7085 H     225  UNL225      0.1146
    900 H           4.5993    6.1578   14.7112 H     225  UNL225      0.1146
    901 N           4.3390    6.6860   16.8282 N.3   226  UNL226     -0.3437
    902 H           3.4407    6.2137   16.7367 H     226  UNL226      0.1146
    903 H           4.4297    7.2792   16.0046 H     226  UNL226      0.1146
    904 H           4.2440    7.3190   17.6211 H     226  UNL226      0.1146
    905 N           4.2636    9.3714   -0.0819 N.3   227  UNL227     -0.3437
    906 H           3.6657   10.1211   -0.4266 H     227  UNL227      0.1146
    907 H           4.8725    9.7962    0.6161 H     227  UNL227      0.1146
    908 H           3.6517    8.7363    0.4285 H     227  UNL227      0.1146
    909 N           3.8674    9.4209    2.6138 N.3   228  UNL228     -0.3437
    910 H           4.3603   10.1670    3.1024 H     228  UNL228      0.1146
    911 H           3.6848    9.7728    1.6750 H     228  UNL228      0.1146
    912 H           4.5410    8.6643    2.5039 H     228  UNL228      0.1146
    913 N           3.9574    9.4564    5.0596 N.3   229  UNL229     -0.3437
    914 H           4.9349    9.6726    5.2498 H     229  UNL229      0.1146
    915 H           3.5970   10.2396    4.5164 H     229  UNL229      0.1146
    916 H           3.9643    8.6564    4.4285 H     229  UNL229      0.1146
    917 N           3.8859    9.6674    7.3765 N.3   230  UNL230     -0.3437
    918 H           4.4727    9.3139    8.1308 H     230  UNL230      0.1146
    919 H           4.5053   10.1933    6.7615 H     230  UNL230      0.1146
    920 H           3.5896    8.8503    6.8446 H     230  UNL230      0.1146
    921 N           3.8580    9.6529   10.7176 N.3   231  UNL231     -0.3437
    922 H           3.8807    9.0399   11.5312 H     231  UNL231      0.1146
    923 H           4.6612   10.2731   10.8107 H     231  UNL231      0.1146
    924 H           4.0535    9.0591    9.9129 H     231  UNL231      0.1146
    925 N           3.8849    9.6908   14.3660 N.3   232  UNL232     -0.3437
    926 H           4.2079    9.6325   13.4013 H     232  UNL232      0.1146
    927 H           3.6644    8.7364   14.6466 H     232  UNL232      0.1146
    928 H           4.6964    9.9653   14.9177 H     232  UNL232      0.1146
    929 N           3.8982    9.6150   16.6267 N.3   233  UNL233     -0.3437
    930 H           3.5522    9.2573   17.5159 H     233  UNL233      0.1146
    931 H           4.6058   10.3103   16.8597 H     233  UNL233      0.1146
    932 H           4.3973    8.8424   16.1882 H     233  UNL233      0.1146
    933 N           4.2979   11.9866   -0.2814 N.3   234  UNL234     -0.3437
    934 H           3.4757   12.3260    0.2156 H     234  UNL234      0.1146
    935 H           3.9462   11.4310   -1.0599 H     234  UNL234      0.1146
    936 H           4.7337   12.8085   -0.6974 H     234  UNL234      0.1146
    937 N           3.9838   12.2590    1.7725 N.3   235  UNL235     -0.3437
    938 H           3.4815   11.4450    2.1238 H     235  UNL235      0.1146
    939 H           4.0545   12.9056    2.5569 H     235  UNL235      0.1146
    940 H           4.9337   11.9426    1.5828 H     235  UNL235      0.1146
    941 N           3.8909   12.1611    4.2805 N.3   236  UNL236     -0.3437
    942 H           3.6653   11.5587    5.0708 H     236  UNL236      0.1146
    943 H           4.1609   13.0589    4.6798 H     236  UNL236      0.1146
    944 H           4.7363   11.7734    3.8641 H     236  UNL236      0.1146
    945 N           3.9332   11.9535    6.7942 N.3   237  UNL237     -0.3437
    946 H           4.4457   11.4956    7.5465 H     237  UNL237      0.1146
    947 H           3.4369   12.7319    7.2256 H     237  UNL237      0.1146
    948 H           4.6377   12.3711    6.1879 H     237  UNL237      0.1146
    949 N           3.8461   12.1415    9.2772 N.3   238  UNL238     -0.3437
    950 H           4.2474   11.2061    9.3243 H     238  UNL238      0.1146
    951 H           3.8348   12.4908   10.2344 H     238  UNL238      0.1146
    952 H           4.5253   12.7137    8.7775 H     238  UNL238      0.1146
    953 N           4.1061   12.0364   12.1456 N.3   239  UNL239     -0.3437
    954 H           3.3377   11.6840   11.5767 H     239  UNL239      0.1146
    955 H           4.9607   11.7791   11.6537 H     239  UNL239      0.1146
    956 H           4.0490   13.0526   12.0964 H     239  UNL239      0.1146
    957 N           4.0853   11.9492   14.1072 N.3   240  UNL240     -0.3437
    958 H           4.6796   12.7460   13.8828 H     240  UNL240      0.1146
    959 H           4.4952   11.5171   14.9340 H     240  UNL240      0.1146
    960 H           3.1934   12.3398   14.4075 H     240  UNL240      0.1146
    961 N           3.9199   12.3236   16.9222 N.3   241  UNL241     -0.3437
    962 H           3.4772   11.4858   16.5475 H     241  UNL241      0.1146
    963 H           4.6303   11.9974   17.5760 H     241  UNL241      0.1146
    964 H           4.4261   12.7454   16.1449 H     241  UNL241      0.1146
    965 N           4.2700   14.6520   -0.3373 N.3   242  UNL242     -0.3437
    966 H           3.5847   15.3340   -0.6591 H     242  UNL242      0.1146
    967 H           4.8527   15.1386    0.3425 H     242  UNL242      0.1146
    968 H           3.7462   13.9548    0.1899 H     242  UNL242      0.1146
    969 N           3.9089   14.7759    1.7604 N.3   243  UNL243     -0.3437
    970 H           4.3863   15.6689    1.8742 H     243  UNL243      0.1146
    971 H           4.6394   14.0870    1.5869 H     243  UNL243      0.1146
    972 H           3.5188   14.5476    2.6737 H     243  UNL243      0.1146
    973 N           4.0139   15.0227    4.9298 N.3   244  UNL244     -0.3437
    974 H           3.3020   14.2941    4.9038 H     244  UNL244      0.1146
    975 H           4.7977   14.6312    5.4501 H     244  UNL244      0.1146
    976 H           4.3398   15.1313    3.9705 H     244  UNL244      0.1146
    977 N           3.9275   14.7086    7.4998 N.3   245  UNL245     -0.3437
    978 H           3.4461   15.0028    6.6513 H     245  UNL245      0.1146
    979 H           4.5014   13.9094    7.2344 H     245  UNL245      0.1146
    980 H           4.5786   15.4585    7.7278 H     245  UNL245      0.1146
    981 N           3.8849   14.9480    9.9267 N.3   246  UNL246     -0.3437
    982 H           3.5969   14.0565    9.5259 H     246  UNL246      0.1146
    983 H           4.4297   14.7197   10.7570 H     246  UNL246      0.1146
    984 H           4.5421   15.3551    9.2628 H     246  UNL246      0.1146
    985 N           3.8706   14.8853   14.2100 N.3   247  UNL247     -0.3437
    986 H           4.3520   15.5414   14.8232 H     247  UNL247      0.1146
    987 H           4.5591   14.5891   13.5196 H     247  UNL247      0.1146
    988 H           3.6717   14.0635   14.7787 H     247  UNL247      0.1146
    989 N           3.9443   14.5511   16.9024 N.3   248  UNL248     -0.3437
    990 H           3.3989   15.3337   16.5440 H     248  UNL248      0.1146
    991 H           4.5446   14.2523   16.1350 H     248  UNL248      0.1146
    992 H           4.5657   14.9422   17.6091 H     248  UNL248      0.1146
    993 N           3.9293   17.5553   -0.2829 N.3   249  UNL249     -0.3437
    994 H           4.5497   16.9445    0.2467 H     249  UNL249      0.1146
    995 H           4.5350   18.1532   -0.8433 H     249  UNL249      0.1146
    996 H           3.4396   16.9535   -0.9436 H     249  UNL249      0.1146
    997 N           3.9351   17.5017    2.2225 N.3   250  UNL250     -0.3437
    998 H           3.4610   16.8732    1.5755 H     250  UNL250      0.1146
    999 H           4.7320   16.9814    2.5864 H     250  UNL250      0.1146
   1000 H           4.3254   18.2502    1.6517 H     250  UNL250      0.1146
   1001 N           3.9900   17.3319    4.7332 N.3   251  UNL251     -0.3437
   1002 H           3.3715   17.1559    3.9427 H     251  UNL251      0.1146
   1003 H           4.8413   16.8036    4.5468 H     251  UNL251      0.1146
   1004 H           4.2507   18.3151    4.6724 H     251  UNL251      0.1146
   1005 N           3.8983   17.3123    7.1206 N.3   252  UNL252     -0.3437
   1006 H           4.7387   17.6044    7.6173 H     252  UNL252      0.1146
   1007 H           3.6225   18.1061    6.5441 H     252  UNL252      0.1146
   1008 H           4.1940   16.5838    6.4723 H     252  UNL252      0.1146
   1009 N           3.8918   17.4913    9.5772 N.3   253  UNL253     -0.3437
   1010 H           3.6008   16.7892    8.8984 H     253  UNL253      0.1146
   1011 H           4.6598   17.0740   10.1011 H     253  UNL253      0.1146
   1012 H           4.3012   18.2519    9.0367 H     253  UNL253      0.1146
   1013 N           3.9175   17.3017   12.0657 N.3   254  UNL254     -0.3437
   1014 H           3.4753   17.7491   11.2640 H     254  UNL254      0.1146
   1015 H           4.5060   16.5619   11.6852 H     254  UNL254      0.1146
   1016 H           4.5547   17.9938   12.4574 H     254  UNL254      0.1146
   1017 N           3.9959   17.5754   14.1246 N.3   255  UNL255     -0.3437
   1018 H           4.6388   18.0745   14.7378 H     255  UNL255      0.1146
   1019 H           4.5261   16.7971   13.7353 H     255  UNL255      0.1146
   1020 H           3.2928   17.1594   14.7337 H     255  UNL255      0.1146
   1021 N           3.9423   17.1606   16.7934 N.3   256  UNL256     -0.3437
   1022 H           3.6321   17.8754   16.1369 H     256  UNL256      0.1146
   1023 H           4.9120   16.9601   16.5528 H     256  UNL256      0.1146
   1024 H           3.9671   17.6104   17.7074 H     256  UNL256      0.1146
   1025 N           3.9186   19.8925   -0.1630 N.3   257  UNL257     -0.3437
   1026 H           4.7099   20.2643   -0.6864 H     257  UNL257      0.1146
   1027 H           4.3159   19.2909    0.5571 H     257  UNL257      0.1146
   1028 H           3.5092   20.6859    0.3283 H     257  UNL257      0.1146
   1029 N           4.0155   20.1821    2.5847 N.3   258  UNL258     -0.3437
   1030 H           3.2754   19.9721    1.9165 H     258  UNL258      0.1146
   1031 H           4.4353   19.2865    2.8297 H     258  UNL258      0.1146
   1032 H           4.7273   20.6929    2.0642 H     258  UNL258      0.1146
   1033 N           3.9206   20.1693    4.7603 N.3   259  UNL259     -0.3437
   1034 H           3.4889   19.4379    5.3234 H     259  UNL259      0.1146
   1035 H           4.3642   20.8067    5.4201 H     259  UNL259      0.1146
   1036 H           4.6798   19.7199    4.2504 H     259  UNL259      0.1146
   1037 N           3.9298   19.8398    7.4056 N.3   260  UNL260     -0.3437
   1038 H           4.6181   19.3922    6.8020 H     260  UNL260      0.1146
   1039 H           4.4621   20.3829    8.0840 H     260  UNL260      0.1146
   1040 H           3.4435   20.5187    6.8218 H     260  UNL260      0.1146
   1041 N           3.8991   20.1503   10.1598 N.3   261  UNL261     -0.3437
   1042 H           3.5610   19.8236    9.2557 H     261  UNL261      0.1146
   1043 H           4.3465   19.3472   10.5993 H     261  UNL261      0.1146
   1044 H           4.6468   20.8125    9.9575 H     261  UNL261      0.1146
   1045 N           3.9242   20.2603   14.3226 N.3   262  UNL262     -0.3437
   1046 H           4.5103   20.1980   13.4914 H     262  UNL262      0.1146
   1047 H           3.4550   19.3594   14.4037 H     262  UNL262      0.1146
   1048 H           4.5640   20.3159   15.1138 H     262  UNL262      0.1146
   1049 N           3.9996   19.8698   17.0160 N.3   263  UNL263     -0.3437
   1050 H           4.6323   19.3419   16.4165 H     263  UNL263      0.1146
   1051 H           4.5358   20.6659   17.3582 H     263  UNL263      0.1146
   1052 H           3.2858   20.2560   16.3999 H     263  UNL263      0.1146
   1053 N           3.8976   22.5944   -0.2665 N.3   264  UNL264     -0.3437
   1054 H           3.5707   23.1745   -1.0379 H     264  UNL264      0.1146
   1055 H           4.3311   21.7771   -0.6938 H     264  UNL264      0.1146
   1056 H           4.6541   23.1148    0.1752 H     264  UNL264      0.1146
   1057 N           4.2780   22.5595    1.7874 N.3   265  UNL265     -0.3437
   1058 H           4.8339   22.8268    2.5985 H     265  UNL265      0.1146
   1059 H           3.5932   21.8852    2.1261 H     265  UNL265      0.1146
   1060 H           3.7484   23.3893    1.5240 H     265  UNL265      0.1146
   1061 N           3.9416   22.7683    4.2564 N.3   266  UNL266     -0.3437
   1062 H           4.2263   21.8011    4.1086 H     266  UNL266      0.1146
   1063 H           3.4823   22.7901    5.1658 H     266  UNL266      0.1146
   1064 H           4.8034   23.3013    4.3643 H     266  UNL266      0.1146
   1065 N           4.3132   22.8196    7.0922 N.3   267  UNL267     -0.3437
   1066 H           3.4801   23.3632    6.8711 H     267  UNL267      0.1146
   1067 H           3.9854   21.9933    7.5905 H     267  UNL267      0.1146
   1068 H           4.6749   22.4847    6.2004 H     267  UNL267      0.1146
   1069 N           3.9353   22.8349    9.5673 N.3   268  UNL268     -0.3437
   1070 H           3.4329   22.0989    9.0731 H     268  UNL268      0.1146
   1071 H           4.6506   22.3644   10.1200 H     268  UNL268      0.1146
   1072 H           4.4346   23.3627    8.8528 H     268  UNL268      0.1146
   1073 N           3.9224   22.5676   11.6646 N.3   269  UNL269     -0.3437
   1074 H           3.4635   23.0466   12.4381 H     269  UNL269      0.1146
   1075 H           4.5983   23.2295   11.2857 H     269  UNL269      0.1146
   1076 H           4.4693   21.8170   12.0840 H     269  UNL269      0.1146
   1077 N           3.9351   22.5104   14.1550 N.3   270  UNL270     -0.3437
   1078 H           3.4233   23.1044   14.8058 H     270  UNL270      0.1146
   1079 H           4.5619   23.1296   13.6430 H     270  UNL270      0.1146
   1080 H           4.5332   21.9165   14.7277 H     270  UNL270      0.1146
   1081 N           3.8227   22.6924   16.7512 N.3   271  UNL271     -0.3437
   1082 H           4.0736   22.7728   17.7355 H     271  UNL271      0.1146
   1083 H           4.3680   23.4018   16.2635 H     271  UNL271      0.1146
   1084 H           4.1892   21.7938   16.4404 H     271  UNL271      0.1146
   1085 N           2.0272   25.4011   -0.2770 N.3   272  UNL272     -0.3437
   1086 H           2.7976   24.9705    0.2324 H     272  UNL272      0.1146
   1087 H           2.4452   26.1267   -0.8578 H     272  UNL272      0.1146
   1088 H           1.6835   24.6897   -0.9206 H     272  UNL272      0.1146
   1089 N           3.9483   25.1387    1.8218 N.3   273  UNL273     -0.3437
   1090 H           3.3896   25.6601    2.4958 H     273  UNL273      0.1146
   1091 H           4.5314   25.8272    1.3480 H     273  UNL273      0.1146
   1092 H           4.5843   24.5619    2.3705 H     273  UNL273      0.1146
   1093 N           3.9408   25.1180    4.3140 N.3   274  UNL274     -0.3437
   1094 H           3.4083   25.7850    4.8706 H     274  UNL274      0.1146
   1095 H           4.5726   25.6732    3.7388 H     274  UNL274      0.1146
   1096 H           4.5318   24.6117    4.9719 H     274  UNL274      0.1146
   1097 N           3.9251   25.1472    6.7668 N.3   275  UNL275     -0.3437
   1098 H           3.4516   25.7312    7.4546 H     275  UNL275      0.1146
   1099 H           4.5306   25.7724    6.2367 H     275  UNL275      0.1146
   1100 H           4.5462   24.5371    7.2962 H     275  UNL275      0.1146
   1101 N           3.9245   25.1097    9.2745 N.3   276  UNL276     -0.3437
   1102 H           3.4626   25.9319    9.6604 H     276  UNL276      0.1146
   1103 H           4.6318   25.4611    8.6307 H     276  UNL276      0.1146
   1104 H           4.4346   24.6853   10.0478 H     276  UNL276      0.1146
   1105 N           3.8798   25.2965   12.0492 N.3   277  UNL277     -0.3437
   1106 H           3.6213   25.4328   11.0730 H     277  UNL277      0.1146
   1107 H           4.4055   24.4241   12.0814 H     277  UNL277      0.1146
   1108 H           4.5470   26.0346   12.2688 H     277  UNL277      0.1146
   1109 N           3.9571   25.1523   14.1279 N.3   278  UNL278     -0.3437
   1110 H           4.9189   25.3264   13.8398 H     278  UNL278      0.1146
   1111 H           4.0154   24.6451   15.0098 H     278  UNL278      0.1146
   1112 H           3.5622   26.0641   14.3540 H     278  UNL278      0.1146
   1113 N           3.9355   25.4942   16.9275 N.3   279  UNL279     -0.3437
   1114 H           3.4286   24.6951   16.5494 H     279  UNL279      0.1146
   1115 H           4.6302   25.1095   17.5661 H     279  UNL279      0.1146
   1116 H           4.4592   25.8891   16.1476 H     279  UNL279      0.1146
   1117 N           3.9018   27.8226   -0.2788 N.3   280  UNL280     -0.3437
   1118 H           3.5281   28.3376   -1.0747 H     280  UNL280      0.1146
   1119 H           4.4924   27.0903   -0.6703 H     280  UNL280      0.1146
   1120 H           4.5313   28.4646    0.2007 H     280  UNL280      0.1146
   1121 N           3.9138   27.9901    1.7998 N.3   281  UNL281     -0.3437
   1122 H           3.5331   27.4174    2.5517 H     281  UNL281      0.1146
   1123 H           4.2873   28.8269    2.2455 H     281  UNL281      0.1146
   1124 H           4.7193   27.4807    1.4391 H     281  UNL281      0.1146
   1125 N           3.9036   27.7970    4.3125 N.3   282  UNL282     -0.3437
   1126 H           3.5244   28.4645    4.9827 H     282  UNL282      0.1146
   1127 H           4.5695   28.3179    3.7435 H     282  UNL282      0.1146
   1128 H           4.4560   27.1357    4.8565 H     282  UNL282      0.1146
   1129 N           3.8841   28.0455    7.0841 N.3   283  UNL283     -0.3437
   1130 H           3.5967   27.4210    6.3319 H     283  UNL283      0.1146
   1131 H           4.4955   27.4965    7.6868 H     283  UNL283      0.1146
   1132 H           4.4772   28.7521    6.6514 H     283  UNL283      0.1146
   1133 N           3.8652   27.8809    9.2501 N.3   284  UNL284     -0.3437
   1134 H           3.6857   28.1836   10.2064 H     284  UNL284      0.1146
   1135 H           4.4531   28.6013    8.8332 H     284  UNL284      0.1146
   1136 H           4.4495   27.0494    9.3237 H     284  UNL284      0.1146
   1137 N           1.9364   27.7378   11.7282 N.3   285  UNL285     -0.3437
   1138 H           1.4208   28.4150   12.2885 H     285  UNL285      0.1146
   1139 H           2.5123   28.2830   11.0882 H     285  UNL285      0.1146
   1140 H           2.5840   27.2793   12.3675 H     285  UNL285      0.1146
   1141 N           3.8648   27.8124   14.4426 N.3   286  UNL286     -0.3437
   1142 H           3.7327   28.2263   13.5209 H     286  UNL286      0.1146
   1143 H           4.6092   27.1244   14.3375 H     286  UNL286      0.1146
   1144 H           4.2468   28.5519   15.0305 H     286  UNL286      0.1146
   1145 N           4.3369   27.7454   16.8590 N.3   287  UNL287     -0.3437
   1146 H           4.6522   28.6406   16.4882 H     287  UNL287      0.1146
   1147 H           3.7705   27.9641   17.6774 H     287  UNL287      0.1146
   1148 H           3.6939   27.3651   16.1660 H     287  UNL287      0.1146
   1149 N           3.8412   30.5608   -0.3403 N.3   288  UNL288     -0.3437
   1150 H           4.1245   29.6428   -0.6802 H     288  UNL288      0.1146
   1151 H           4.5541   30.8442    0.3304 H     288  UNL288      0.1146
   1152 H           3.9337   31.1945   -1.1329 H     288  UNL288      0.1146
   1153 N           4.2918   30.6939    2.2034 N.3   289  UNL289     -0.3437
   1154 H           3.5596   30.1454    2.6523 H     289  UNL289      0.1146
   1155 H           4.7886   30.0499    1.5895 H     289  UNL289      0.1146
   1156 H           3.8135   31.3531    1.5910 H     289  UNL289      0.1146
   1157 N           4.3235   30.7391    4.5805 N.3   290  UNL290     -0.3437
   1158 H           3.5310   31.2501    4.1941 H     290  UNL290      0.1146
   1159 H           3.9377   30.1166    5.2891 H     290  UNL290      0.1146
   1160 H           4.6613   30.1365    3.8314 H     290  UNL290      0.1146
   1161 N           3.9189   30.7099    7.1037 N.3   291  UNL291     -0.3437
   1162 H           3.5212   29.8667    6.6921 H     291  UNL291      0.1146
   1163 H           4.7346   30.4060    7.6335 H     291  UNL291      0.1146
   1164 H           4.2788   31.2597    6.3249 H     291  UNL291      0.1146
   1165 N           3.9382   30.7067    9.5913 N.3   292  UNL292     -0.3437
   1166 H           3.4159   30.1326    8.9310 H     292  UNL292      0.1146
   1167 H           4.5832   30.0750   10.0638 H     292  UNL292      0.1146
   1168 H           4.5162   31.3280    9.0272 H     292  UNL292      0.1146
   1169 N           3.9258   30.6731   12.0670 N.3   293  UNL293     -0.3437
   1170 H           3.4534   30.1471   11.3332 H     293  UNL293      0.1146
   1171 H           4.6018   30.0326   12.4809 H     293  UNL293      0.1146
   1172 H           4.4725   31.3895   11.5914 H     293  UNL293      0.1146
   1173 N           3.9351   30.6261   14.1064 N.3   294  UNL294     -0.3437
   1174 H           3.4388   30.5675   14.9944 H     294  UNL294      0.1146
   1175 H           4.6714   31.3175   14.2412 H     294  UNL294      0.1146
   1176 H           4.4082   29.7312   13.9894 H     294  UNL294      0.1146
   1177 N           3.8758   30.4002   16.7252 N.3   295  UNL295     -0.3437
   1178 H           3.7125   31.4032   16.6490 H     295  UNL295      0.1146
   1179 H           4.6811   30.2010   16.1335 H     295  UNL295      0.1146
   1180 H           4.1840   30.2378   17.6828 H     295  UNL295      0.1146
   1181 N           6.3605   -0.9262   -0.2008 N.3   296  UNL296     -0.3437
   1182 H           7.2827   -1.3434   -0.0837 H     296  UNL296      0.1146
   1183 H           6.4751   -0.1785   -0.8837 H     296  UNL296      0.1146
   1184 H           5.7869   -1.6356   -0.6548 H     296  UNL296      0.1146
   1185 N           6.5691   -0.8859    1.7630 N.3   297  UNL297     -0.3437
   1186 H           7.3332   -1.2893    2.3031 H     297  UNL297      0.1146
   1187 H           5.9243   -1.6518    1.5730 H     297  UNL297      0.1146
   1188 H           6.0786   -0.2567    2.3970 H     297  UNL297      0.1146
   1189 N           6.3394   -0.8380    4.2862 N.3   298  UNL298     -0.3437
   1190 H           5.6905   -1.3453    4.8861 H     298  UNL298      0.1146
   1191 H           6.9803   -0.3529    4.9125 H     298  UNL298      0.1146
   1192 H           6.8950   -1.5474    3.8103 H     298  UNL298      0.1146
   1193 N           6.2839   -0.8301    6.8203 N.3   299  UNL299     -0.3437
   1194 H           5.8542   -1.4486    7.5068 H     299  UNL299      0.1146
   1195 H           7.0530   -0.3667    7.3022 H     299  UNL299      0.1146
   1196 H           6.7141   -1.4382    6.1249 H     299  UNL299      0.1146
   1197 N           6.3290   -0.8378    9.2240 N.3   300  UNL300     -0.3437
   1198 H           5.7110   -1.4386    9.7675 H     300  UNL300      0.1146
   1199 H           6.9086   -0.3445    9.9018 H     300  UNL300      0.1146
   1200 H           6.9566   -1.4627    8.7200 H     300  UNL300      0.1146
   1201 N           6.4171   -0.8271   11.6529 N.3   301  UNL301     -0.3437
   1202 H           5.6007   -1.0455   12.2222 H     301  UNL301      0.1146
   1203 H           7.1294   -0.4921   12.3002 H     301  UNL301      0.1146
   1204 H           6.7581   -1.7189   11.2971 H     301  UNL301      0.1146
   1205 N           6.6162   -1.1372   14.0999 N.3   302  UNL302     -0.3437
   1206 H           6.0214   -1.8115   14.5793 H     302  UNL302      0.1146
   1207 H           6.0102   -0.3579   13.8471 H     302  UNL302      0.1146
   1208 H           7.2574   -0.7770   14.8052 H     302  UNL302      0.1146
   1209 N           6.6541   -0.8786   16.6092 N.3   303  UNL303     -0.3437
   1210 H           6.1593   -0.2471   17.2376 H     303  UNL303      0.1146
   1211 H           7.1565   -1.5331   17.2071 H     303  UNL303      0.1146
   1212 H           5.9353   -1.4248   16.1367 H     303  UNL303      0.1146
   1213 N           6.6153    1.7976   -0.2736 N.3   304  UNL304     -0.3437
   1214 H           6.1552    1.0343    0.2204 H     304  UNL304      0.1146
   1215 H           7.2449    1.3590   -0.9442 H     304  UNL304      0.1146
   1216 H           5.8898    2.2527   -0.8257 H     304  UNL304      0.1146
   1217 N           6.6969    1.7226    2.1710 N.3   305  UNL305     -0.3437
   1218 H           5.9577    1.3137    2.7408 H     305  UNL305      0.1146
   1219 H           7.0058    0.9846    1.5398 H     305  UNL305      0.1146
   1220 H           6.2449    2.4227    1.5846 H     305  UNL305      0.1146
   1221 N           6.4334    1.7525    4.7297 N.3   306  UNL306     -0.3437
   1222 H           5.9567    0.8526    4.6924 H     306  UNL306      0.1146
   1223 H           7.4168    1.5572    4.5473 H     306  UNL306      0.1146
   1224 H           6.0983    2.2813    3.9257 H     306  UNL306      0.1146
   1225 N           6.6851    1.7816    7.0595 N.3   307  UNL307     -0.3437
   1226 H           6.2190    1.1859    7.7422 H     307  UNL307      0.1146
   1227 H           7.0530    1.1552    6.3449 H     307  UNL307      0.1146
   1228 H           5.9481    2.3209    6.6076 H     307  UNL307      0.1146
   1229 N           6.6273    1.7603    9.6089 N.3   308  UNL308     -0.3437
   1230 H           6.0422    1.0261   10.0053 H     308  UNL308      0.1146
   1231 H           7.2336    1.3009    8.9309 H     308  UNL308      0.1146
   1232 H           6.0022    2.3563    9.0682 H     308  UNL308      0.1146
   1233 N           6.6162    1.4390   11.6725 N.3   309  UNL309     -0.3437
   1234 H           6.0198    2.1362   11.2290 H     309  UNL309      0.1146
   1235 H           7.2574    1.9577   12.2710 H     309  UNL309      0.1146
   1236 H           6.0118    0.9105   12.2999 H     309  UNL309      0.1146
   1237 N           6.3348    1.5185   14.0903 N.3   310  UNL310     -0.3437
   1238 H           5.9825    2.4097   14.4368 H     310  UNL310      0.1146
   1239 H           7.3335    1.6517   13.9374 H     310  UNL310      0.1146
   1240 H           6.2545    0.8637   14.8669 H     310  UNL310      0.1146
   1241 N           6.3469    1.8413   16.9301 N.3   311  UNL311     -0.3437
   1242 H           5.6752    1.1591   16.5813 H     311  UNL311      0.1146
   1243 H           6.9708    1.3287   17.5517 H     311  UNL311      0.1146
   1244 H           6.9123    2.1144   16.1275 H     311  UNL311      0.1146
   1245 N           6.3019    4.4575    0.0299 N.3   312  UNL312     -0.3437
   1246 H           5.7773    3.6457    0.3527 H     312  UNL312      0.1146
   1247 H           6.8686    4.7586    0.8215 H     312  UNL312      0.1146
   1248 H           6.9573    4.1089   -0.6681 H     312  UNL312      0.1146
   1249 N           6.6890    4.4131    2.6094 N.3   313  UNL313     -0.3437
   1250 H           6.0162    4.9412    3.1632 H     313  UNL313      0.1146
   1251 H           7.0535    3.6886    3.2264 H     313  UNL313      0.1146
   1252 H           6.1465    3.9277    1.8963 H     313  UNL313      0.1146
   1253 N           6.4992    4.1175    4.7968 N.3   314  UNL314     -0.3437
   1254 H           6.1101    3.4866    5.4960 H     314  UNL314      0.1146
   1255 H           5.8984    4.9406    4.7957 H     314  UNL314      0.1146
   1256 H           7.3975    4.4260    5.1657 H     314  UNL314      0.1146
   1257 N           6.5772    4.0578    7.3209 N.3   315  UNL315     -0.3437
   1258 H           7.3219    4.5832    7.7768 H     315  UNL315      0.1146
   1259 H           6.0753    3.5776    8.0665 H     315  UNL315      0.1146
   1260 H           5.9307    4.7521    6.9491 H     315  UNL315      0.1146
   1261 N           6.6887    4.1931   10.1926 N.3   316  UNL316     -0.3437
   1262 H           7.0413    4.2065    9.2366 H     316  UNL316      0.1146
   1263 H           6.2185    5.0865   10.3311 H     316  UNL316      0.1146
   1264 H           5.9567    3.4845   10.2121 H     316  UNL316      0.1146
   1265 N           6.3428    4.5002   12.2761 N.3   317  UNL317     -0.3437
   1266 H           6.4527    4.3248   13.2739 H     317  UNL317      0.1146
   1267 H           7.2786    4.4447   11.8764 H     317  UNL317      0.1146
   1268 H           5.8311    3.7010   11.9050 H     317  UNL317      0.1146
   1269 N           6.6543    4.3208   15.5203 N.3   318  UNL318     -0.3437
   1270 H           7.1552    3.8742   14.7535 H     318  UNL318      0.1146
   1271 H           6.1637    5.1145   15.1109 H     318  UNL318      0.1146
   1272 H           5.9320    3.6611   15.8058 H     318  UNL318      0.1146
   1273 N           6.3028    6.7242   -0.6420 N.3   319  UNL319     -0.3437
   1274 H           5.7833    7.1479    0.1254 H     319  UNL319      0.1146
   1275 H           6.8029    7.4864   -1.0974 H     319  UNL319      0.1146
   1276 H           7.0162    6.1394   -0.2091 H     319  UNL319      0.1146
   1277 N           6.5454    7.0197    1.7610 N.3   320  UNL320     -0.3437
   1278 H           6.0933    6.1246    1.5804 H     320  UNL320      0.1146
   1279 H           5.9060    7.5419    2.3585 H     320  UNL320      0.1146
   1280 H           7.3604    6.8116    2.3362 H     320  UNL320      0.1146
   1281 N           6.3190    6.7643    4.2491 N.3   321  UNL321     -0.3437
   1282 H           5.7332    7.1289    4.9989 H     321  UNL321      0.1146
   1283 H           6.9247    7.5336    3.9666 H     321  UNL321      0.1146
   1284 H           6.9284    6.0710    4.6806 H     321  UNL321      0.1146
   1285 N           6.2998    6.7155    6.7626 N.3   322  UNL322     -0.3437
   1286 H           5.7819    7.3315    7.3878 H     322  UNL322      0.1146
   1287 H           6.9381    7.3156    6.2422 H     322  UNL322      0.1146
   1288 H           6.8854    6.1353    7.3616 H     322  UNL322      0.1146
   1289 N           6.3307    6.6863    9.2279 N.3   323  UNL323     -0.3437
   1290 H           5.7655    7.0132   10.0102 H     323  UNL323      0.1146
   1291 H           6.6413    7.5234    8.7367 H     323  UNL323      0.1146
   1292 H           7.1677    6.2750    9.6386 H     323  UNL323      0.1146
   1293 N           6.3251    6.6783   11.7068 N.3   324  UNL324     -0.3437
   1294 H           5.7276    7.2212   12.3285 H     324  UNL324      0.1146
   1295 H           6.8255    7.3569   11.1346 H     324  UNL324      0.1146
   1296 H           7.0270    6.2414   12.3025 H     324  UNL324      0.1146
   1297 N           6.4984    7.0462   14.0933 N.3   325  UNL325     -0.3437
   1298 H           6.0174    6.1677   13.9054 H     325  UNL325      0.1146
   1299 H           5.9836    7.4917   14.8515 H     325  UNL325      0.1146
   1300 H           7.4058    6.7922   14.4812 H     325  UNL325      0.1146
   1301 N           6.2516    6.6840   16.8228 N.3   326  UNL326     -0.3437
   1302 H           5.9491    7.6155   16.5415 H     326  UNL326      0.1146
   1303 H           6.9406    6.3917   16.1312 H     326  UNL326      0.1146
   1304 H           6.7639    6.8065   17.6951 H     326  UNL326      0.1146
   1305 N           6.6134    9.3567   -0.6707 N.3   327  UNL327     -0.3437
   1306 H           5.8619    9.9492   -1.0206 H     327  UNL327      0.1146
   1307 H           7.2414    9.9734   -0.1571 H     327  UNL327      0.1146
   1308 H           6.1884    8.7457    0.0254 H     327  UNL327      0.1146
   1309 N           6.3397    9.3552    1.7947 N.3   328  UNL328     -0.3437
   1310 H           5.6885    9.7929    2.4448 H     328  UNL328      0.1146
   1311 H           6.9256   10.1073    1.4349 H     328  UNL328      0.1146
   1312 H           6.9513    8.7695    2.3616 H     328  UNL328      0.1146
   1313 N           6.5916    9.4059    4.2208 N.3   329  UNL329     -0.3437
   1314 H           6.1292    8.6754    4.7600 H     329  UNL329      0.1146
   1315 H           5.8922   10.1325    4.0745 H     329  UNL329      0.1146
   1316 H           7.2922    9.8112    4.8398 H     329  UNL329      0.1146
   1317 N           6.5012    9.6360    6.6741 N.3   330  UNL330     -0.3437
   1318 H           6.1900   10.2789    7.4009 H     330  UNL330      0.1146
   1319 H           7.3814    9.2431    7.0047 H     330  UNL330      0.1146
   1320 H           5.8327    8.8669    6.6744 H     330  UNL330      0.1146
   1321 N           6.2197    9.5872    9.2809 N.3   331  UNL331     -0.3437
   1322 H           6.1067    8.8675    9.9934 H     331  UNL331      0.1146
   1323 H           6.7003   10.3612    9.7374 H     331  UNL331      0.1146
   1324 H           6.8785    9.2090    8.6017 H     331  UNL331      0.1146
   1325 N           6.6209    9.3971   12.1016 N.3   332  UNL332     -0.3437
   1326 H           5.7309    8.9296   11.9354 H     332  UNL332      0.1146
   1327 H           7.1497    9.3106   11.2349 H     332  UNL332      0.1146
   1328 H           6.4037   10.3877   12.2004 H     332  UNL332      0.1146
   1329 N           6.5452    9.6601   14.0901 N.3   333  UNL333     -0.3437
   1330 H           5.7629    9.0237   13.9444 H     333  UNL333      0.1146
   1331 H           6.2802   10.2565   14.8726 H     333  UNL333      0.1146
   1332 H           7.3169    9.0847   14.4244 H     333  UNL333      0.1146
   1333 N           6.3417    9.3982   16.5577 N.3   334  UNL334     -0.3437
   1334 H           5.8754    9.1331   17.4241 H     334  UNL334      0.1146
   1335 H           6.3836   10.4164   16.5614 H     334  UNL334      0.1146
   1336 H           7.3046    9.0772   16.6474 H     334  UNL334      0.1146
   1337 N           6.6926   12.0159    0.0443 N.3   335  UNL335     -0.3437
   1338 H           7.0444   12.6245   -0.6933 H     335  UNL335      0.1146
   1339 H           6.0623   12.5884    0.6041 H     335  UNL335      0.1146
   1340 H           6.1060   11.3233   -0.4190 H     335  UNL335      0.1146
   1341 N           6.6143   12.1438    2.6102 N.3   336  UNL336     -0.3437
   1342 H           5.9263   12.8890    2.5111 H     336  UNL336      0.1146
   1343 H           6.1101   11.2729    2.4498 H     336  UNL336      0.1146
   1344 H           7.2546   12.2464    1.8241 H     336  UNL336      0.1146
   1345 N           6.5548   12.2173    5.0873 N.3   337  UNL337     -0.3437
   1346 H           6.0737   12.9616    4.5843 H     337  UNL337      0.1146
   1347 H           5.9247   11.4165    5.0742 H     337  UNL337      0.1146
   1348 H           7.3520   11.9568    4.5085 H     337  UNL337      0.1146
   1349 N           6.2694   12.2199    7.4729 N.3   338  UNL338     -0.3437
   1350 H           7.0544   11.7401    7.9110 H     338  UNL338      0.1146
   1351 H           6.6693   13.0091    6.9672 H     338  UNL338      0.1146
   1352 H           5.9121   11.5830    6.7622 H     338  UNL338      0.1146
   1353 N           6.5144   12.3826    9.7065 N.3   339  UNL339     -0.3437
   1354 H           6.1041   12.5735   10.6195 H     339  UNL339      0.1146
   1355 H           7.3879   11.8904    9.8885 H     339  UNL339      0.1146
   1356 H           5.8988   11.7056    9.2579 H     339  UNL339      0.1146
   1357 N           6.2779   11.9209   14.3624 N.3   340  UNL340     -0.3437
   1358 H           6.0098   12.7697   14.8584 H     340  UNL340      0.1146
   1359 H           6.4198   12.1959   13.3915 H     340  UNL340      0.1146
   1360 H           7.1977   11.6657   14.7192 H     340  UNL340      0.1146
   1361 N           6.3383   12.3830   16.8888 N.3   341  UNL341     -0.3437
   1362 H           5.7545   11.8018   16.2891 H     341  UNL341      0.1146
   1363 H           6.6310   11.7853   17.6604 H     341  UNL341      0.1146
   1364 H           7.1815   12.5821   16.3523 H     341  UNL341      0.1146
   1365 N           6.3619   14.8641   -0.7115 N.3   342  UNL342     -0.3437
   1366 H           5.8860   14.0401   -0.3470 H     342  UNL342      0.1146
   1367 H           6.3120   15.5662    0.0254 H     342  UNL342      0.1146
   1368 H           7.3453   14.6089   -0.7900 H     342  UNL342      0.1146
   1369 N           6.4406   14.9897    1.8147 N.3   343  UNL343     -0.3437
   1370 H           5.8033   15.0567    2.6070 H     343  UNL343      0.1146
   1371 H           7.3791   14.9621    2.2107 H     343  UNL343      0.1146
   1372 H           6.2821   14.0708    1.4037 H     343  UNL343      0.1146
   1373 N           6.3326   14.9346    4.6728 N.3   344  UNL344     -0.3437
   1374 H           7.0179   14.3118    5.0980 H     344  UNL344      0.1146
   1375 H           6.8456   15.4949    3.9936 H     344  UNL344      0.1146
   1376 H           5.7091   14.3380    4.1309 H     344  UNL344      0.1146
   1377 N           6.2751   14.9403    7.0721 N.3   345  UNL345     -0.3437
   1378 H           6.8951   14.4721    7.7315 H     345  UNL345      0.1146
   1379 H           6.8799   15.4648    6.4417 H     345  UNL345      0.1146
   1380 H           5.8551   14.2022    6.5089 H     345  UNL345      0.1146
   1381 N           6.5121   14.9032    9.6647 N.3   346  UNL346     -0.3437
   1382 H           7.3567   14.4320    9.3437 H     346  UNL346      0.1146
   1383 H           6.2535   15.5524    8.9230 H     346  UNL346      0.1146
   1384 H           5.7828   14.1917    9.6819 H     346  UNL346      0.1146
   1385 N           6.3727   14.7018   11.5998 N.3   347  UNL347     -0.3437
   1386 H           5.6416   15.0151   12.2367 H     347  UNL347      0.1146
   1387 H           7.0648   15.4493   11.5771 H     347  UNL347      0.1146
   1388 H           6.8261   13.9131   12.0589 H     347  UNL347      0.1146
   1389 N           6.3353   14.9522   14.1478 N.3   348  UNL348     -0.3437
   1390 H           6.8481   14.2175   13.6624 H     348  UNL348      0.1146
   1391 H           5.7032   14.4764   14.7901 H     348  UNL348      0.1146
   1392 H           7.0186   15.4332   14.7311 H     348  UNL348      0.1146
   1393 N           6.3105   14.5285   16.7567 N.3   349  UNL349     -0.3437
   1394 H           6.5019   14.7129   17.7404 H     349  UNL349      0.1146
   1395 H           5.8731   15.3738   16.3924 H     349  UNL349      0.1146
   1396 H           7.2197   14.4641   16.3010 H     349  UNL349      0.1146
   1397 N           6.3061   17.6118   -0.3365 N.3   350  UNL350     -0.3437
   1398 H           7.0091   17.9872   -0.9715 H     350  UNL350      0.1146
   1399 H           5.7729   16.9326   -0.8776 H     350  UNL350      0.1146
   1400 H           6.8172   17.0748    0.3626 H     350  UNL350      0.1146
   1401 N           6.4478   17.6254    2.2001 N.3   351  UNL351     -0.3437
   1402 H           6.3558   16.7132    2.6449 H     351  UNL351      0.1146
   1403 H           7.3529   17.6196    1.7320 H     351  UNL351      0.1146
   1404 H           5.7487   17.6483    1.4591 H     351  UNL351      0.1146
   1405 N           6.6110   17.6126    4.6311 N.3   352  UNL352     -0.3437
   1406 H           6.2089   16.8812    5.2157 H     352  UNL352      0.1146
   1407 H           7.2409   17.1404    3.9841 H     352  UNL352      0.1146
   1408 H           5.8444   17.9723    4.0643 H     352  UNL352      0.1146
   1409 N           6.5917   17.6069    7.1172 N.3   353  UNL353     -0.3437
   1410 H           6.0721   16.8911    7.6233 H     353  UNL353      0.1146
   1411 H           7.2997   17.1112    6.5774 H     353  UNL353      0.1146
   1412 H           5.9417   17.9971    6.4363 H     353  UNL353      0.1146
   1413 N           6.6075   17.6101    9.5667 N.3   354  UNL354     -0.3437
   1414 H           6.2138   16.8576   10.1299 H     354  UNL354      0.1146
   1415 H           7.2460   17.1644    8.9094 H     354  UNL354      0.1146
   1416 H           5.8378   17.9745    9.0073 H     354  UNL354      0.1146
   1417 N           6.5252   17.5845   12.0952 N.3   355  UNL355     -0.3437
   1418 H           6.0680   16.7187   12.3777 H     355  UNL355      0.1146
   1419 H           7.3833   17.3071   11.6206 H     355  UNL355      0.1146
   1420 H           5.9287   17.9962   11.3789 H     355  UNL355      0.1146
   1421 N           6.4825   17.1968   14.1198 N.3   356  UNL356     -0.3437
   1422 H           6.0609   16.8554   14.9824 H     356  UNL356      0.1146
   1423 H           5.9502   18.0245   13.8554 H     356  UNL356      0.1146
   1424 H           7.4115   17.5297   14.3738 H     356  UNL356      0.1146
   1425 N           6.6989   17.5791   16.8771 N.3   357  UNL357     -0.3437
   1426 H           6.1176   17.2988   17.6657 H     357  UNL357      0.1146
   1427 H           7.0195   16.7145   16.4433 H     357  UNL357      0.1146
   1428 H           6.0691   18.0140   16.2044 H     357  UNL357      0.1146
   1429 N           6.6310   20.2311   -0.1470 N.3   358  UNL358     -0.3437
   1430 H           5.9707   20.6660    0.4959 H     358  UNL358      0.1146
   1431 H           7.2229   19.6287    0.4232 H     358  UNL358      0.1146
   1432 H           6.0806   19.6079   -0.7360 H     358  UNL358      0.1146
   1433 N           6.5891   20.2139    2.2687 N.3   359  UNL359     -0.3437
   1434 H           5.9039   19.5634    1.8871 H     359  UNL359      0.1146
   1435 H           6.1135   20.7160    3.0170 H     359  UNL359      0.1146
   1436 H           7.2987   19.6402    2.7223 H     359  UNL359      0.1146
   1437 N           6.3261   19.8687    5.0078 N.3   360  UNL360     -0.3437
   1438 H           5.9631   20.8178    4.9320 H     360  UNL360      0.1146
   1439 H           6.3046   19.4836    4.0646 H     360  UNL360      0.1146
   1440 H           7.3114   19.9634    5.2499 H     360  UNL360      0.1146
   1441 N           6.6189   19.8997    7.1816 N.3   361  UNL361     -0.3437
   1442 H           6.1304   19.2432    7.7889 H     361  UNL361      0.1146
   1443 H           5.9136   20.5590    6.8557 H     361  UNL361      0.1146
   1444 H           7.2423   20.4318    7.7871 H     361  UNL361      0.1146
   1445 N           6.3468   19.8087    9.7600 N.3   362  UNL362     -0.3437
   1446 H           5.7527   20.2132    9.0377 H     362  UNL362      0.1146
   1447 H           7.2101   19.5349    9.2929 H     362  UNL362      0.1146
   1448 H           6.5955   20.5768   10.3818 H     362  UNL362      0.1146
   1449 N           6.5018   19.8173   12.2578 N.3   363  UNL363     -0.3437
   1450 H           5.8792   20.5644   11.9536 H     363  UNL363      0.1146
   1451 H           7.3926   20.2635   12.4716 H     363  UNL363      0.1146
   1452 H           6.1316   19.4884   13.1484 H     363  UNL363      0.1146
   1453 N           6.4720   20.1888   14.9240 N.3   364  UNL364     -0.3437
   1454 H           6.0607   19.2622   15.0266 H     364  UNL364      0.1146
   1455 H           7.4154   20.0397   14.5688 H     364  UNL364      0.1146
   1456 H           5.9570   20.6430   14.1711 H     364  UNL364      0.1146
   1457 N           6.3425   22.5274   -0.2310 N.3   365  UNL365     -0.3437
   1458 H           5.7407   22.6259   -1.0474 H     365  UNL365      0.1146
   1459 H           7.1758   22.0376   -0.5539 H     365  UNL365      0.1146
   1460 H           6.6462   23.4699    0.0093 H     365  UNL365      0.1146
   1461 N           6.6691   22.7141    1.7904 N.3   366  UNL366     -0.3437
   1462 H           6.0923   23.5284    1.9966 H     366  UNL366      0.1146
   1463 H           7.1230   22.4621    2.6672 H     366  UNL366      0.1146
   1464 H           6.0207   21.9562    1.5818 H     366  UNL366      0.1146
   1465 N           6.6350   22.8280    4.6627 N.3   367  UNL367     -0.3437
   1466 H           7.1532   22.0297    4.2986 H     367  UNL367      0.1146
   1467 H           6.3267   23.3577    3.8486 H     367  UNL367      0.1146
   1468 H           5.7903   22.4454    5.0852 H     367  UNL367      0.1146
   1469 N           6.6689   22.8368    7.0830 N.3   368  UNL368     -0.3437
   1470 H           6.0386   22.3381    7.7094 H     368  UNL368      0.1146
   1471 H           7.1248   22.1229    6.5164 H     368  UNL368      0.1146
   1472 H           6.0729   23.3630    6.4455 H     368  UNL368      0.1146
   1473 N           6.3129   22.6997    9.6472 N.3   369  UNL369     -0.3437
   1474 H           6.0667   23.3601    8.9113 H     369  UNL369      0.1146
   1475 H           6.2166   21.7723    9.2361 H     369  UNL369      0.1146
   1476 H           7.3090   22.8288    9.8187 H     369  UNL369      0.1146
   1477 N           6.3097   22.5450   11.6556 N.3   370  UNL370     -0.3437
   1478 H           5.7562   22.9310   12.4191 H     370  UNL370      0.1146
   1479 H           6.8911   23.3097   11.3156 H     370  UNL370      0.1146
   1480 H           6.9482   21.8751   12.0821 H     370  UNL370      0.1146
   1481 N           6.3223   22.4881   14.1532 N.3   371  UNL371     -0.3437
   1482 H           5.7265   23.0341   14.7740 H     371  UNL371      0.1146
   1483 H           6.8935   23.1631   13.6467 H     371  UNL371      0.1146
   1484 H           6.9629   21.9756   14.7576 H     371  UNL371      0.1146
   1485 N           6.2185   22.6426   16.6548 N.3   372  UNL372     -0.3437
   1486 H           6.1059   22.9140   17.6305 H     372  UNL372      0.1146
   1487 H           6.8393   23.3362   16.2402 H     372  UNL372      0.1146
   1488 H           6.7415   21.7681   16.6651 H     372  UNL372      0.1146
   1489 N           5.0960   25.3698   -0.7160 N.3   373  UNL373     -0.3437
   1490 H           4.0867   25.5082   -0.6940 H     373  UNL373      0.1146
   1491 H           5.4715   25.9168    0.0574 H     373  UNL373      0.1146
   1492 H           5.2510   24.3931   -0.4704 H     373  UNL373      0.1146
   1493 N           6.6433   25.4924    1.8631 N.3   374  UNL374     -0.3437
   1494 H           6.1277   24.8722    1.2404 H     374  UNL374      0.1146
   1495 H           5.9454   25.9368    2.4580 H     374  UNL374      0.1146
   1496 H           7.1888   24.8866    2.4745 H     374  UNL374      0.1146
   1497 N           6.3071   25.1264    4.3016 N.3   375  UNL375     -0.3437
   1498 H           5.7631   25.6979    4.9464 H     375  UNL375      0.1146
   1499 H           6.8836   25.7759    3.7684 H     375  UNL375      0.1146
   1500 H           6.9514   24.5877    4.8787 H     375  UNL375      0.1146
   1501 N           6.3132   25.1175    6.7695 N.3   376  UNL376     -0.3437
   1502 H           5.7491   25.6853    7.4002 H     376  UNL376      0.1146
   1503 H           6.8710   25.7733    6.2243 H     376  UNL376      0.1146
   1504 H           6.9719   24.6119    7.3601 H     376  UNL376      0.1146
   1505 N           6.5131   25.1439    9.1532 N.3   377  UNL377     -0.3437
   1506 H           6.0582   26.0430    9.0016 H     377  UNL377      0.1146
   1507 H           7.3939   25.3502    9.6221 H     377  UNL377      0.1146
   1508 H           5.9400   24.6508    9.8365 H     377  UNL377      0.1146
   1509 N           6.3666   25.1638   11.6281 N.3   378  UNL378     -0.3437
   1510 H           7.3854   25.1662   11.6464 H     378  UNL378      0.1146
   1511 H           6.0711   24.7185   12.4957 H     378  UNL378      0.1146
   1512 H           6.0821   26.1395   11.7022 H     378  UNL378      0.1146
   1513 N           6.6938   25.2334   14.5227 N.3   379  UNL379     -0.3437
   1514 H           6.0227   25.9001   14.9015 H     379  UNL379      0.1146
   1515 H           6.1531   24.4127   14.2535 H     379  UNL379      0.1146
   1516 H           7.0356   25.6418   13.6539 H     379  UNL379      0.1146
   1517 N           6.3004   25.5270   16.8571 N.3   380  UNL380     -0.3437
   1518 H           5.8427   24.8184   16.2855 H     380  UNL380      0.1146
   1519 H           6.6194   25.0470   17.6975 H     380  UNL380      0.1146
   1520 H           7.1427   25.7956   16.3504 H     380  UNL380      0.1146
   1521 N           6.2580   27.8692   -0.6460 N.3   381  UNL381     -0.3437
   1522 H           7.1411   28.0747   -1.1111 H     381  UNL381      0.1146
   1523 H           6.4487   27.0960   -0.0103 H     381  UNL381      0.1146
   1524 H           6.0574   28.6752   -0.0556 H     381  UNL381      0.1146
   1525 N           6.3543   27.7932    1.7764 N.3   382  UNL382     -0.3437
   1526 H           6.7282   28.7126    1.5453 H     382  UNL382      0.1146
   1527 H           7.1296   27.2672    2.1770 H     382  UNL382      0.1146
   1528 H           5.6931   27.9421    2.5373 H     382  UNL382      0.1146
   1529 N           6.2967   27.7506    4.3209 N.3   383  UNL383     -0.3437
   1530 H           6.9970   28.2017    3.7341 H     383  UNL383      0.1146
   1531 H           6.8141   27.2590    5.0482 H     383  UNL383      0.1146
   1532 H           5.7975   28.5039    4.7919 H     383  UNL383      0.1146
   1533 N           6.3008   28.0729    7.1278 N.3   384  UNL384     -0.3437
   1534 H           5.7940   27.3996    6.5549 H     384  UNL384      0.1146
   1535 H           7.0366   27.5458    7.5960 H     384  UNL384      0.1146
   1536 H           6.7739   28.6968    6.4756 H     384  UNL384      0.1146
   1537 N           6.4982   27.6980    9.5868 N.3   385  UNL385     -0.3437
   1538 H           6.1229   28.5289   10.0419 H     385  UNL385      0.1146
   1539 H           5.8878   27.5132    8.7920 H     385  UNL385      0.1146
   1540 H           7.3962   27.9750    9.1927 H     385  UNL385      0.1146
   1541 N           4.3871   27.7267   11.8419 N.3   386  UNL386     -0.3437
   1542 H           4.0314   28.6816   11.8327 H     386  UNL386      0.1146
   1543 H           5.0720   27.6749   11.0892 H     386  UNL386      0.1146
   1544 H           4.9146   27.6318   12.7086 H     386  UNL386      0.1146
   1545 N           6.5283   27.6387   14.3553 N.3   387  UNL387     -0.3437
   1546 H           7.3398   28.2046   14.5994 H     387  UNL387      0.1146
   1547 H           5.7738   27.9522   14.9643 H     387  UNL387      0.1146
   1548 H           6.2633   27.9197   13.4124 H     387  UNL387      0.1146
   1549 N           6.2222   27.8004   16.7181 N.3   388  UNL388     -0.3437
   1550 H           6.2318   28.8028   16.5347 H     388  UNL388      0.1146
   1551 H           7.0282   27.4172   16.2264 H     388  UNL388      0.1146
   1552 H           6.4229   27.6947   17.7115 H     388  UNL388      0.1146
   1553 N           6.3758   30.6744   -0.2021 N.3   389  UNL389     -0.3437
   1554 H           7.1655   30.0449   -0.0660 H     389  UNL389      0.1146
   1555 H           6.6950   31.3883   -0.8555 H     389  UNL389      0.1146
   1556 H           5.6688   30.1346   -0.6994 H     389  UNL389      0.1146
   1557 N           6.6029   30.7020    2.2356 N.3   390  UNL390     -0.3437
   1558 H           6.0174   29.9236    2.5348 H     390  UNL390      0.1146
   1559 H           7.2831   30.3087    1.5867 H     390  UNL390      0.1146
   1560 H           6.0018   31.3080    1.6790 H     390  UNL390      0.1146
   1561 N           6.2685   30.6452    4.2814 N.3   391  UNL391     -0.3437
   1562 H           5.8927   30.4565    5.2096 H     391  UNL391      0.1146
   1563 H           6.9958   31.3472    4.4102 H     391  UNL391      0.1146
   1564 H           6.7482   29.7933    3.9940 H     391  UNL391      0.1146
   1565 N           6.6606   30.6980    7.1243 N.3   392  UNL392     -0.3437
   1566 H           6.2162   29.8818    7.5422 H     392  UNL392      0.1146
   1567 H           7.1267   30.3637    6.2820 H     392  UNL392      0.1146
   1568 H           5.9017   31.2988    6.8057 H     392  UNL392      0.1146
   1569 N           6.5907   30.4138    9.6330 N.3   393  UNL393     -0.3437
   1570 H           5.9357   29.8508    9.0924 H     393  UNL393      0.1146
   1571 H           7.3007   30.7294    8.9736 H     393  UNL393      0.1146
   1572 H           6.0781   31.2483    9.9144 H     393  UNL393      0.1146
   1573 N           6.6152   30.4094   12.0807 N.3   394  UNL394     -0.3437
   1574 H           6.0065   29.8218   11.5128 H     394  UNL394      0.1146
   1575 H           7.2594   30.8575   11.4306 H     394  UNL394      0.1146
   1576 H           6.0241   31.1536   12.4482 H     394  UNL394      0.1146
   1577 N           5.9971   29.5000   14.3122 N.3   395  UNL395     -0.3437
   1578 H           6.3282   29.6125   15.2694 H     395  UNL395      0.1146
   1579 H           5.7764   30.4375   13.9794 H     395  UNL395      0.1146
   1580 H           6.8034   29.1923   13.7704 H     395  UNL395      0.1146
   1581 N           6.6039   30.7527   16.9825 N.3   396  UNL396     -0.3437
   1582 H           6.0982   31.2106   16.2256 H     396  UNL396      0.1146
   1583 H           5.9274   30.1485   17.4470 H     396  UNL396      0.1146
   1584 H           7.2757   30.1304   16.5354 H     396  UNL396      0.1146
   1585 N           7.4772   30.6023   14.0723 N.3   397  UNL397     -0.3437
   1586 H           6.8234   31.1569   14.6230 H     397  UNL397      0.1146
   1587 H           8.3171   31.1713   13.9766 H     397  UNL397      0.1146
   1588 H           7.7391   29.8118   14.6596 H     397  UNL397      0.1146
@<TRIPOS>BOND
     1     1     2    1
     2     1     3    1
     3     1     4    1
     4     5     6    1
     5     5     7    1
     6     5     8    1
     7     9    10    1
     8     9    11    1
     9     9    12    1
    10    13    14    1
    11    13    15    1
    12    13    16    1
    13    17    18    1
    14    17    19    1
    15    17    20    1
    16    21    22    1
    17    21    23    1
    18    21    24    1
    19    25    26    1
    20    25    27    1
    21    25    28    1
    22    29    30    1
    23    29    31    1
    24    29    32    1
    25    33    34    1
    26    33    35    1
    27    33    36    1
    28    37    38    1
    29    37    39    1
    30    37    40    1
    31    41    42    1
    32    41    43    1
    33    41    44    1
    34    45    46    1
    35    45    47    1
    36    45    48    1
    37    49    50    1
    38    49    51    1
    39    49    52    1
    40    53    54    1
    41    53    55    1
    42    53    56    1
    43    57    58    1
    44    57    59    1
    45    57    60    1
    46    61    62    1
    47    61    63    1
    48    61    64    1
    49    65    66    1
    50    65    67    1
    51    65    68    1
    52    69    70    1
    53    69    71    1
    54    69    72    1
    55    73    74    1
    56    73    75    1
    57    73    76    1
    58    77    78    1
    59    77    79    1
    60    77    80    1
    61    81    82    1
    62    81    83    1
    63    81    84    1
    64    85    86    1
    65    85    87    1
    66    85    88    1
    67    89    90    1
    68    89    91    1
    69    89    92    1
    70    93    94    1
    71    93    95    1
    72    93    96    1
    73    97    98    1
    74    97    99    1
    75    97   100    1
    76   101   102    1
    77   101   103    1
    78   101   104    1
    79   105   106    1
    80   105   107    1
    81   105   108    1
    82   109   110    1
    83   109   111    1
    84   109   112    1
    85   113   114    1
    86   113   115    1
    87   113   116    1
    88   117   118    1
    89   117   119    1
    90   117   120    1
    91   121   122    1
    92   121   123    1
    93   121   124    1
    94   125   126    1
    95   125   127    1
    96   125   128    1
    97   129   130    1
    98   129   131    1
    99   129   132    1
   100   133   134    1
   101   133   135    1
   102   133   136    1
   103   137   138    1
   104   137   139    1
   105   137   140    1
   106   141   142    1
   107   141   143    1
   108   141   144    1
   109   145   146    1
   110   145   147    1
   111   145   148    1
   112   149   150    1
   113   149   151    1
   114   149   152    1
   115   153   154    1
   116   153   155    1
   117   153   156    1
   118   157   158    1
   119   157   159    1
   120   157   160    1
   121   161   162    1
   122   161   163    1
   123   161   164    1
   124   165   166    1
   125   165   167    1
   126   165   168    1
   127   169   170    1
   128   169   171    1
   129   169   172    1
   130   173   174    1
   131   173   175    1
   132   173   176    1
   133   177   178    1
   134   177   179    1
   135   177   180    1
   136   181   182    1
   137   181   183    1
   138   181   184    1
   139   185   186    1
   140   185   187    1
   141   185   188    1
   142   189   190    1
   143   189   191    1
   144   189   192    1
   145   193   194    1
   146   193   195    1
   147   193   196    1
   148   197   198    1
   149   197   199    1
   150   197   200    1
   151   201   202    1
   152   201   203    1
   153   201   204    1
   154   205   206    1
   155   205   207    1
   156   205   208    1
   157   209   210    1
   158   209   211    1
   159   209   212    1
   160   213   214    1
   161   213   215    1
   162   213   216    1
   163   217   218    1
   164   217   219    1
   165   217   220    1
   166   221   222    1
   167   221   223    1
   168   221   224    1
   169   225   226    1
   170   225   227    1
   171   225   228    1
   172   229   230    1
   173   229   231    1
   174   229   232    1
   175   233   234    1
   176   233   235    1
   177   233   236    1
   178   237   238    1
   179   237   239    1
   180   237   240    1
   181   241   242    1
   182   241   243    1
   183   241   244    1
   184   245   246    1
   185   245   247    1
   186   245   248    1
   187   249   250    1
   188   249   251    1
   189   249   252    1
   190   253   254    1
   191   253   255    1
   192   253   256    1
   193   257   258    1
   194   257   259    1
   195   257   260    1
   196   261   262    1
   197   261   263    1
   198   261   264    1
   199   265   266    1
   200   265   267    1
   201   265   268    1
   202   269   270    1
   203   269   271    1
   204   269   272    1
   205   273   274    1
   206   273   275    1
   207   273   276    1
   208   277   278    1
   209   277   279    1
   210   277   280    1
   211   281   282    1
   212   281   283    1
   213   281   284    1
   214   285   286    1
   215   285   287    1
   216   285   288    1
   217   289   290    1
   218   289   291    1
   219   289   292    1
   220   293   294    1
   221   293   295    1
   222   293   296    1
   223   297   298    1
   224   297   299    1
   225   297   300    1
   226   301   302    1
   227   301   303    1
   228   301   304    1
   229   305   306    1
   230   305   307    1
   231   305   308    1
   232   309   310    1
   233   309   311    1
   234   309   312    1
   235   313   314    1
   236   313   315    1
   237   313   316    1
   238   317   318    1
   239   317   319    1
   240   317   320    1
   241   321   322    1
   242   321   323    1
   243   321   324    1
   244   325   326    1
   245   325   327    1
   246   325   328    1
   247   329   330    1
   248   329   331    1
   249   329   332    1
   250   333   334    1
   251   333   335    1
   252   333   336    1
   253   337   338    1
   254   337   339    1
   255   337   340    1
   256   341   342    1
   257   341   343    1
   258   341   344    1
   259   345   346    1
   260   345   347    1
   261   345   348    1
   262   349   350    1
   263   349   351    1
   264   349   352    1
   265   353   354    1
   266   353   355    1
   267   353   356    1
   268   357   358    1
   269   357   359    1
   270   357   360    1
   271   361   362    1
   272   361   363    1
   273   361   364    1
   274   365   366    1
   275   365   367    1
   276   365   368    1
   277   369   370    1
   278   369   371    1
   279   369   372    1
   280   373   374    1
   281   373   375    1
   282   373   376    1
   283   377   378    1
   284   377   379    1
   285   377   380    1
   286   381   382    1
   287   381   383    1
   288   381   384    1
   289   385   386    1
   290   385   387    1
   291   385   388    1
   292   389   390    1
   293   389   391    1
   294   389   392    1
   295   393   394    1
   296   393   395    1
   297   393   396    1
   298   397   398    1
   299   397   399    1
   300   397   400    1
   301   401   402    1
   302   401   403    1
   303   401   404    1
   304   405   406    1
   305   405   407    1
   306   405   408    1
   307   409   410    1
   308   409   411    1
   309   409   412    1
   310   413   414    1
   311   413   415    1
   312   413   416    1
   313   417   418    1
   314   417   419    1
   315   417   420    1
   316   421   422    1
   317   421   423    1
   318   421   424    1
   319   425   426    1
   320   425   427    1
   321   425   428    1
   322   429   430    1
   323   429   431    1
   324   429   432    1
   325   433   434    1
   326   433   435    1
   327   433   436    1
   328   437   438    1
   329   437   439    1
   330   437   440    1
   331   441   442    1
   332   441   443    1
   333   441   444    1
   334   445   446    1
   335   445   447    1
   336   445   448    1
   337   449   450    1
   338   449   451    1
   339   449   452    1
   340   453   454    1
   341   453   455    1
   342   453   456    1
   343   457   458    1
   344   457   459    1
   345   457   460    1
   346   461   462    1
   347   461   463    1
   348   461   464    1
   349   465   466    1
   350   465   467    1
   351   465   468    1
   352   469   470    1
   353   469   471    1
   354   469   472    1
   355   473   474    1
   356   473   475    1
   357   473   476    1
   358   477   478    1
   359   477   479    1
   360   477   480    1
   361   481   482    1
   362   481   483    1
   363   481   484    1
   364   485   486    1
   365   485   487    1
   366   485   488    1
   367   489   490    1
   368   489   491    1
   369   489   492    1
   370   493   494    1
   371   493   495    1
   372   493   496    1
   373   497   498    1
   374   497   499    1
   375   497   500    1
   376   501   502    1
   377   501   503    1
   378   501   504    1
   379   505   506    1
   380   505   507    1
   381   505   508    1
   382   509   510    1
   383   509   511    1
   384   509   512    1
   385   513   514    1
   386   513   515    1
   387   513   516    1
   388   517   518    1
   389   517   519    1
   390   517   520    1
   391   521   522    1
   392   521   523    1
   393   521   524    1
   394   525   526    1
   395   525   527    1
   396   525   528    1
   397   529   530    1
   398   529   531    1
   399   529   532    1
   400   533   534    1
   401   533   535    1
   402   533   536    1
   403   537   538    1
   404   537   539    1
   405   537   540    1
   406   541   542    1
   407   541   543    1
   408   541   544    1
   409   545   546    1
   410   545   547    1
   411   545   548    1
   412   549   550    1
   413   549   551    1
   414   549   552    1
   415   553   554    1
   416   553   555    1
   417   553   556    1
   418   557   558    1
   419   557   559    1
   420   557   560    1
   421   561   562    1
   422   561   563    1
   423   561   564    1
   424   565   566    1
   425   565   567    1
   426   565   568    1
   427   569   570    1
   428   569   571    1
   429   569   572    1
   430   573   574    1
   431   573   575    1
   432   573   576    1
   433   577   578    1
   434   577   579    1
   435   577   580    1
   436   581   582    1
   437   581   583    1
   438   581   584    1
   439   585   586    1
   440   585   587    1
   441   585   588    1
   442   589   590    1
   443   589   591    1
   444   589   592    1
   445   593   594    1
   446   593   595    1
   447   593   596    1
   448   597   598    1
   449   597   599    1
   450   597   600    1
   451   601   602    1
   452   601   603    1
   453   601   604    1
   454   605   606    1
   455   605   607    1
   456   605   608    1
   457   609   610    1
   458   609   611    1
   459   609   612    1
   460   613   614    1
   461   613   615    1
   462   613   616    1
   463   617   618    1
   464   617   619    1
   465   617   620    1
   466   621   622    1
   467   621   623    1
   468   621   624    1
   469   625   626    1
   470   625   627    1
   471   625   628    1
   472   629   630    1
   473   629   631    1
   474   629   632    1
   475   633   634    1
   476   633   635    1
   477   633   636    1
   478   637   638    1
   479   637   639    1
   480   637   640    1
   481   641   642    1
   482   641   643    1
   483   641   644    1
   484   645   646    1
   485   645   647    1
   486   645   648    1
   487   649   650    1
   488   649   651    1
   489   649   652    1
   490   653   654    1
   491   653   655    1
   492   653   656    1
   493   657   658    1
   494   657   659    1
   495   657   660    1
   496   661   662    1
   497   661   663    1
   498   661   664    1
   499   665   666    1
   500   665   667    1
   501   665   668    1
   502   669   670    1
   503   669   671    1
   504   669   672    1
   505   673   674    1
   506   673   675    1
   507   673   676    1
   508   677   678    1
   509   677   679    1
   510   677   680    1
   511   681   682    1
   512   681   683    1
   513   681   684    1
   514   685   686    1
   515   685   687    1
   516   685   688    1
   517   689   690    1
   518   689   691    1
   519   689   692    1
   520   693   694    1
   521   693   695    1
   522   693   696    1
   523   697   698    1
   524   697   699    1
   525   697   700    1
   526   701   702    1
   527   701   703    1
   528   701   704    1
   529   705   706    1
   530   705   707    1
   531   705   708    1
   532   709   710    1
   533   709   711    1
   534   709   712    1
   535   713   714    1
   536   713   715    1
   537   713   716    1
   538   717   718    1
   539   717   719    1
   540   717   720    1
   541   721   722    1
   542   721   723    1
   543   721   724    1
   544   725   726    1
   545   725   727    1
   546   725   728    1
   547   729   730    1
   548   729   731    1
   549   729   732    1
   550   733   734    1
   551   733   735    1
   552   733   736    1
   553   737   738    1
   554   737   739    1
   555   737   740    1
   556   741   742    1
   557   741   743    1
   558   741   744    1
   559   745   746    1
   560   745   747    1
   561   745   748    1
   562   749   750    1
   563   749   751    1
   564   749   752    1
   565   753   754    1
   566   753   755    1
   567   753   756    1
   568   757   758    1
   569   757   759    1
   570   757   760    1
   571   761   762    1
   572   761   763    1
   573   761   764    1
   574   765   766    1
   575   765   767    1
   576   765   768    1
   577   769   770    1
   578   769   771    1
   579   769   772    1
   580   773   774    1
   581   773   775    1
   582   773   776    1
   583   777   778    1
   584   777   779    1
   585   777   780    1
   586   781   782    1
   587   781   783    1
   588   781   784    1
   589   785   786    1
   590   785   787    1
   591   785   788    1
   592   789   790    1
   593   789   791    1
   594   789   792    1
   595   793   794    1
   596   793   795    1
   597   793   796    1
   598   797   798    1
   599   797   799    1
   600   797   800    1
   601   801   802    1
   602   801   803    1
   603   801   804    1
   604   805   806    1
   605   805   807    1
   606   805   808    1
   607   809   810    1
   608   809   811    1
   609   809   812    1
   610   813   814    1
   611   813   815    1
   612   813   816    1
   613   817   818    1
   614   817   819    1
   615   817   820    1
   616   821   822    1
   617   821   823    1
   618   821   824    1
   619   825   826    1
   620   825   827    1
   621   825   828    1
   622   829   830    1
   623   829   831    1
   624   829   832    1
   625   833   834    1
   626   833   835    1
   627   833   836    1
   628   837   838    1
   629   837   839    1
   630   837   840    1
   631   841   842    1
   632   841   843    1
   633   841   844    1
   634   845   846    1
   635   845   847    1
   636   845   848    1
   637   849   850    1
   638   849   851    1
   639   849   852    1
   640   853   854    1
   641   853   855    1
   642   853   856    1
   643   857   858    1
   644   857   859    1
   645   857   860    1
   646   861   862    1
   647   861   863    1
   648   861   864    1
   649   865   866    1
   650   865   867    1
   651   865   868    1
   652   869   870    1
   653   869   871    1
   654   869   872    1
   655   873   874    1
   656   873   875    1
   657   873   876    1
   658   877   878    1
   659   877   879    1
   660   877   880    1
   661   881   882    1
   662   881   883    1
   663   881   884    1
   664   885   886    1
   665   885   887    1
   666   885   888    1
   667   889   890    1
   668   889   891    1
   669   889   892    1
   670   893   894    1
   671   893   895    1
   672   893   896    1
   673   897   898    1
   674   897   899    1
   675   897   900    1
   676   901   902    1
   677   901   903    1
   678   901   904    1
   679   905   906    1
   680   905   907    1
   681   905   908    1
   682   909   910    1
   683   909   911    1
   684   909   912    1
   685   913   914    1
   686   913   915    1
   687   913   916    1
   688   917   918    1
   689   917   919    1
   690   917   920    1
   691   921   922    1
   692   921   923    1
   693   921   924    1
   694   925   926    1
   695   925   927    1
   696   925   928    1
   697   929   930    1
   698   929   931    1
   699   929   932    1
   700   933   934    1
   701   933   935    1
   702   933   936    1
   703   937   938    1
   704   937   939    1
   705   937   940    1
   706   941   942    1
   707   941   943    1
   708   941   944    1
   709   945   946    1
   710   945   947    1
   711   945   948    1
   712   949   950    1
   713   949   951    1
   714   949   952    1
   715   953   954    1
   716   953   955    1
   717   953   956    1
   718   957   958    1
   719   957   959    1
   720   957   960    1
   721   961   962    1
   722   961   963    1
   723   961   964    1
   724   965   966    1
   725   965   967    1
   726   965   968    1
   727   969   970    1
   728   969   971    1
   729   969   972    1
   730   973   974    1
   731   973   975    1
   732   973   976    1
   733   977   978    1
   734   977   979    1
   735   977   980    1
   736   981   982    1
   737   981   983    1
   738   981   984    1
   739   985   986    1
   740   985   987    1
   741   985   988    1
   742   989   990    1
   743   989   991    1
   744   989   992    1
   745   993   994    1
   746   993   995    1
   747   993   996    1
   748   997   998    1
   749   997   999    1
   750   997  1000    1
   751  1001  1002    1
   752  1001  1003    1
   753  1001  1004    1
   754  1005  1006    1
   755  1005  1007    1
   756  1005  1008    1
   757  1009  1010    1
   758  1009  1011    1
   759  1009  1012    1
   760  1013  1014    1
   761  1013  1015    1
   762  1013  1016    1
   763  1017  1018    1
   764  1017  1019    1
   765  1017  1020    1
   766  1021  1022    1
   767  1021  1023    1
   768  1021  1024    1
   769  1025  1026    1
   770  1025  1027    1
   771  1025  1028    1
   772  1029  1030    1
   773  1029  1031    1
   774  1029  1032    1
   775  1033  1034    1
   776  1033  1035    1
   777  1033  1036    1
   778  1037  1038    1
   779  1037  1039    1
   780  1037  1040    1
   781  1041  1042    1
   782  1041  1043    1
   783  1041  1044    1
   784  1045  1046    1
   785  1045  1047    1
   786  1045  1048    1
   787  1049  1050    1
   788  1049  1051    1
   789  1049  1052    1
   790  1053  1054    1
   791  1053  1055    1
   792  1053  1056    1
   793  1057  1058    1
   794  1057  1059    1
   795  1057  1060    1
   796  1061  1062    1
   797  1061  1063    1
   798  1061  1064    1
   799  1065  1066    1
   800  1065  1067    1
   801  1065  1068    1
   802  1069  1070    1
   803  1069  1071    1
   804  1069  1072    1
   805  1073  1074    1
   806  1073  1075    1
   807  1073  1076    1
   808  1077  1078    1
   809  1077  1079    1
   810  1077  1080    1
   811  1081  1082    1
   812  1081  1083    1
   813  1081  1084    1
   814  1085  1086    1
   815  1085  1087    1
   816  1085  1088    1
   817  1089  1090    1
   818  1089  1091    1
   819  1089  1092    1
   820  1093  1094    1
   821  1093  1095    1
   822  1093  1096    1
   823  1097  1098    1
   824  1097  1099    1
   825  1097  1100    1
   826  1101  1102    1
   827  1101  1103    1
   828  1101  1104    1
   829  1105  1106    1
   830  1105  1107    1
   831  1105  1108    1
   832  1109  1110    1
   833  1109  1111    1
   834  1109  1112    1
   835  1113  1114    1
   836  1113  1115    1
   837  1113  1116    1
   838  1117  1118    1
   839  1117  1119    1
   840  1117  1120    1
   841  1121  1122    1
   842  1121  1123    1
   843  1121  1124    1
   844  1125  1126    1
   845  1125  1127    1
   846  1125  1128    1
   847  1129  1130    1
   848  1129  1131    1
   849  1129  1132    1
   850  1133  1134    1
   851  1133  1135    1
   852  1133  1136    1
   853  1137  1138    1
   854  1137  1139    1
   855  1137  1140    1
   856  1141  1142    1
   857  1141  1143    1
   858  1141  1144    1
   859  1145  1146    1
   860  1145  1147    1
   861  1145  1148    1
   862  1149  1150    1
   863  1149  1151    1
   864  1149  1152    1
   865  1153  1154    1
   866  1153  1155    1
   867  1153  1156    1
   868  1157  1158    1
   869  1157  1159    1
   870  1157  1160    1
   871  1161  1162    1
   872  1161  1163    1
   873  1161  1164    1
   874  1165  1166    1
   875  1165  1167    1
   876  1165  1168    1
   877  1169  1170    1
   878  1169  1171    1
   879  1169  1172    1
   880  1173  1174    1
   881  1173  1175    1
   882  1173  1176    1
   883  1177  1178    1
   884  1177  1179    1
   885  1177  1180    1
   886  1181  1182    1
   887  1181  1183    1
   888  1181  1184    1
   889  1185  1186    1
   890  1185  1187    1
   891  1185  1188    1
   892  1189  1190    1
   893  1189  1191    1
   894  1189  1192    1
   895  1193  1194    1
   896  1193  1195    1
   897  1193  1196    1
   898  1197  1198    1
   899  1197  1199    1
   900  1197  1200    1
   901  1201  1202    1
   902  1201  1203    1
   903  1201  1204    1
   904  1205  1206    1
   905  1205  1207    1
   906  1205  1208    1
   907  1209  1210    1
   908  1209  1211    1
   909  1209  1212    1
   910  1213  1214    1
   911  1213  1215    1
   912  1213  1216    1
   913  1217  1218    1
   914  1217  1219    1
   915  1217  1220    1
   916  1221  1222    1
   917  1221  1223    1
   918  1221  1224    1
   919  1225  1226    1
   920  1225  1227    1
   921  1225  1228    1
   922  1229  1230    1
   923  1229  1231    1
   924  1229  1232    1
   925  1233  1234    1
   926  1233  1235    1
   927  1233  1236    1
   928  1237  1238    1
   929  1237  1239    1
   930  1237  1240    1
   931  1241  1242    1
   932  1241  1243    1
   933  1241  1244    1
   934  1245  1246    1
   935  1245  1247    1
   936  1245  1248    1
   937  1249  1250    1
   938  1249  1251    1
   939  1249  1252    1
   940  1253  1254    1
   941  1253  1255    1
   942  1253  1256    1
   943  1257  1258    1
   944  1257  1259    1
   945  1257  1260    1
   946  1261  1262    1
   947  1261  1263    1
   948  1261  1264    1
   949  1265  1266    1
   950  1265  1267    1
   951  1265  1268    1
   952  1269  1270    1
   953  1269  1271    1
   954  1269  1272    1
   955  1273  1274    1
   956  1273  1275    1
   957  1273  1276    1
   958  1277  1278    1
   959  1277  1279    1
   960  1277  1280    1
   961  1281  1282    1
   962  1281  1283    1
   963  1281  1284    1
   964  1285  1286    1
   965  1285  1287    1
   966  1285  1288    1
   967  1289  1290    1
   968  1289  1291    1
   969  1289  1292    1
   970  1293  1294    1
   971  1293  1295    1
   972  1293  1296    1
   973  1297  1298    1
   974  1297  1299    1
   975  1297  1300    1
   976  1301  1302    1
   977  1301  1303    1
   978  1301  1304    1
   979  1305  1306    1
   980  1305  1307    1
   981  1305  1308    1
   982  1309  1310    1
   983  1309  1311    1
   984  1309  1312    1
   985  1313  1314    1
   986  1313  1315    1
   987  1313  1316    1
   988  1317  1318    1
   989  1317  1319    1
   990  1317  1320    1
   991  1321  1322    1
   992  1321  1323    1
   993  1321  1324    1
   994  1325  1326    1
   995  1325  1327    1
   996  1325  1328    1
   997  1329  1330    1
   998  1329  1331    1
   999  1329  1332    1
  1000  1333  1334    1
  1001  1333  1335    1
  1002  1333  1336    1
  1003  1337  1338    1
  1004  1337  1339    1
  1005  1337  1340    1
  1006  1341  1342    1
  1007  1341  1343    1
  1008  1341  1344    1
  1009  1345  1346    1
  1010  1345  1347    1
  1011  1345  1348    1
  1012  1349  1350    1
  1013  1349  1351    1
  1014  1349  1352    1
  1015  1353  1354    1
  1016  1353  1355    1
  1017  1353  1356    1
  1018  1357  1358    1
  1019  1357  1359    1
  1020  1357  1360    1
  1021  1361  1362    1
  1022  1361  1363    1
  1023  1361  1364    1
  1024  1365  1366    1
  1025  1365  1367    1
  1026  1365  1368    1
  1027  1369  1370    1
  1028  1369  1371    1
  1029  1369  1372    1
  1030  1373  1374    1
  1031  1373  1375    1
  1032  1373  1376    1
  1033  1377  1378    1
  1034  1377  1379    1
  1035  1377  1380    1
  1036  1381  1382    1
  1037  1381  1383    1
  1038  1381  1384    1
  1039  1385  1386    1
  1040  1385  1387    1
  1041  1385  1388    1
  1042  1389  1390    1
  1043  1389  1391    1
  1044  1389  1392    1
  1045  1393  1394    1
  1046  1393  1395    1
  1047  1393  1396    1
  1048  1397  1398    1
  1049  1397  1399    1
  1050  1397  1400    1
  1051  1401  1402    1
  1052  1401  1403    1
  1053  1401  1404    1
  1054  1405  1406    1
  1055  1405  1407    1
  1056  1405  1408    1
  1057  1409  1410    1
  1058  1409  1411    1
  1059  1409  1412    1
  1060  1413  1414    1
  1061  1413  1415    1
  1062  1413  1416    1
  1063  1417  1418    1
  1064  1417  1419    1
  1065  1417  1420    1
  1066  1421  1422    1
  1067  1421  1423    1
  1068  1421  1424    1
  1069  1425  1426    1
  1070  1425  1427    1
  1071  1425  1428    1
  1072  1429  1430    1
  1073  1429  1431    1
  1074  1429  1432    1
  1075  1433  1434    1
  1076  1433  1435    1
  1077  1433  1436    1
  1078  1437  1438    1
  1079  1437  1439    1
  1080  1437  1440    1
  1081  1441  1442    1
  1082  1441  1443    1
  1083  1441  1444    1
  1084  1445  1446    1
  1085  1445  1447    1
  1086  1445  1448    1
  1087  1449  1450    1
  1088  1449  1451    1
  1089  1449  1452    1
  1090  1453  1454    1
  1091  1453  1455    1
  1092  1453  1456    1
  1093  1457  1458    1
  1094  1457  1459    1
  1095  1457  1460    1
  1096  1461  1462    1
  1097  1461  1463    1
  1098  1461  1464    1
  1099  1465  1466    1
  1100  1465  1467    1
  1101  1465  1468    1
  1102  1469  1470    1
  1103  1469  1471    1
  1104  1469  1472    1
  1105  1473  1474    1
  1106  1473  1475    1
  1107  1473  1476    1
  1108  1477  1478    1
  1109  1477  1479    1
  1110  1477  1480    1
  1111  1481  1482    1
  1112  1481  1483    1
  1113  1481  1484    1
  1114  1485  1486    1
  1115  1485  1487    1
  1116  1485  1488    1
  1117  1489  1490    1
  1118  1489  1491    1
  1119  1489  1492    1
  1120  1493  1494    1
  1121  1493  1495    1
  1122  1493  1496    1
  1123  1497  1498    1
  1124  1497  1499    1
  1125  1497  1500    1
  1126  1501  1502    1
  1127  1501  1503    1
  1128  1501  1504    1
  1129  1505  1506    1
  1130  1505  1507    1
  1131  1505  1508    1
  1132  1509  1510    1
  1133  1509  1511    1
  1134  1509  1512    1
  1135  1513  1514    1
  1136  1513  1515    1
  1137  1513  1516    1
  1138  1517  1518    1
  1139  1517  1519    1
  1140  1517  1520    1
  1141  1521  1522    1
  1142  1521  1523    1
  1143  1521  1524    1
  1144  1525  1526    1
  1145  1525  1527    1
  1146  1525  1528    1
  1147  1529  1530    1
  1148  1529  1531    1
  1149  1529  1532    1
  1150  1533  1534    1
  1151  1533  1535    1
  1152  1533  1536    1
  1153  1537  1538    1
  1154  1537  1539    1
  1155  1537  1540    1
  1156  1541  1542    1
  1157  1541  1543    1
  1158  1541  1544    1
  1159  1545  1546    1
  1160  1545  1547    1
  1161  1545  1548    1
  1162  1549  1550    1
  1163  1549  1551    1
  1164  1549  1552    1
  1165  1553  1554    1
  1166  1553  1555    1
  1167  1553  1556    1
  1168  1557  1558    1
  1169  1557  1559    1
  1170  1557  1560    1
  1171  1561  1562    1
  1172  1561  1563    1
  1173  1561  1564    1
  1174  1565  1566    1
  1175  1565  1567    1
  1176  1565  1568    1
  1177  1569  1570    1
  1178  1569  1571    1
  1179  1569  1572    1
  1180  1573  1574    1
  1181  1573  1575    1
  1182  1573  1576    1
  1183  1577  1578    1
  1184  1577  1579    1
  1185  1577  1580    1
  1186  1581  1582    1
  1187  1581  1583    1
  1188  1581  1584    1
  1189  1585  1586    1
  1190  1585  1587    1
  1191  1585  1588    1
