@<TRIPOS>MOLECULE
*****
 1772 1329 0 0 0
SMALL
GASTEIGER

@<TRIPOS>ATOM
      1 N          -0.7878   -0.9397    3.8090 N.3     1  UNL1       -0.3437
      2 H          -0.5125   -0.0496    3.3964 H       1  UNL1        0.1146
      3 H           0.0794   -1.4204    4.0442 H       1  UNL1        0.1146
      4 H          -1.2324   -0.7120    4.6972 H       1  UNL1        0.1146
      5 N          -1.3610    0.8794   17.6420 N.3     2  UNL2       -0.3437
      6 H          -0.6552    1.6128   17.6916 H       2  UNL2        0.1146
      7 H          -1.5330    0.7218   16.6500 H       2  UNL2        0.1146
      8 H          -0.9111    0.0327   17.9870 H       2  UNL2        0.1146
      9 N          -1.4419   -0.2340   23.4018 N.3     3  UNL3       -0.3437
     10 H          -1.4169    0.7807   23.4916 H       3  UNL3        0.1146
     11 H          -0.6253   -0.4871   22.8473 H       3  UNL3        0.1146
     12 H          -1.2721   -0.6030   24.3363 H       3  UNL3        0.1146
     13 N          -0.3869   -0.3099   33.6895 N.3     4  UNL4       -0.3437
     14 H          -0.5139   -0.3853   32.6813 H       4  UNL4        0.1146
     15 H           0.5202   -0.7285   33.8904 H       4  UNL4        0.1146
     16 H          -0.2868    0.6849   33.8864 H       4  UNL4        0.1146
     17 N          -0.1640    3.9494    6.6730 N.3     5  UNL5       -0.3437
     18 H           0.5220    3.9070    7.4254 H       5  UNL5        0.1146
     19 H          -0.0279    3.1038    6.1209 H       5  UNL5        0.1146
     20 H          -1.0753    3.8506    7.1180 H       5  UNL5        0.1146
     21 N          -0.6429    3.1296    9.6724 N.3     6  UNL6       -0.3437
     22 H          -0.6597    4.0673    9.2739 H       6  UNL6        0.1146
     23 H          -0.1416    2.5484    9.0020 H       6  UNL6        0.1146
     24 H          -0.0465    3.1854   10.4968 H       6  UNL6        0.1146
     25 N          -0.3753    1.0349   11.8401 N.3     7  UNL7       -0.3437
     26 H          -0.1558    0.4343   12.6335 H       7  UNL7        0.1146
     27 H          -1.0649    1.7050   12.1775 H       7  UNL7        0.1146
     28 H           0.4699    1.5723   11.6523 H       7  UNL7        0.1146
     29 N           0.1054    2.0152   15.0164 N.3     8  UNL8       -0.3437
     30 H          -0.1490    2.3197   14.0778 H       8  UNL8        0.1146
     31 H          -0.5912    2.4186   15.6411 H       8  UNL8        0.1146
     32 H          -0.0490    1.0081   15.0365 H       8  UNL8        0.1146
     33 N          -0.7357    3.7341   32.9912 N.3     9  UNL9       -0.3437
     34 H          -0.5774    2.9269   33.5926 H       9  UNL9        0.1146
     35 H           0.1036    3.8284   32.4210 H       9  UNL9        0.1146
     36 H          -1.4814    3.4653   32.3508 H       9  UNL9        0.1146
     37 N          -0.9902    4.6704    0.8331 N.3    10  UNL10      -0.3437
     38 H          -0.8880    3.7807    1.3193 H      10  UNL10       0.1146
     39 H          -0.3806    5.3273    1.3182 H      10  UNL10       0.1146
     40 H          -0.5795    4.5351   -0.0896 H      10  UNL10       0.1146
     41 N          -0.6004    6.3244    3.4450 N.3    11  UNL11      -0.3437
     42 H          -0.5482    6.8817    4.2965 H      11  UNL11       0.1146
     43 H          -0.7854    6.9826    2.6894 H      11  UNL11       0.1146
     44 H           0.3409    5.9691    3.2837 H      11  UNL11       0.1146
     45 N          -0.3841    6.6987    6.7675 N.3    12  UNL12      -0.3437
     46 H          -1.1285    7.2165    7.2325 H      12  UNL12       0.1146
     47 H           0.2085    7.3979    6.3221 H      12  UNL12       0.1146
     48 H           0.1779    6.2865    7.5108 H      12  UNL12       0.1146
     49 N          -0.6918    6.6063    9.7552 N.3    13  UNL13      -0.3437
     50 H          -0.3761    7.4541    9.2863 H      13  UNL13       0.1146
     51 H          -1.4102    6.2041    9.1547 H      13  UNL13       0.1146
     52 H           0.0945    5.9589    9.7245 H      13  UNL13       0.1146
     53 N          -0.6288    4.7126   12.4798 N.3    14  UNL14      -0.3437
     54 H          -0.6620    4.9062   11.4799 H      14  UNL14       0.1146
     55 H           0.1571    5.2494   12.8439 H      14  UNL14       0.1146
     56 H          -1.4662    5.1369   12.8761 H      14  UNL14       0.1146
     57 N          -0.6456    5.3136   15.4070 N.3    15  UNL15      -0.3437
     58 H          -0.3472    4.4762   14.9089 H      15  UNL15       0.1146
     59 H           0.1178    5.5517   16.0386 H      15  UNL15       0.1146
     60 H          -0.6771    6.0578   14.7116 H      15  UNL15       0.1146
     61 N          -0.9530    6.5539   18.2256 N.3    16  UNL16      -0.3437
     62 H          -1.3191    5.6714   17.8712 H      16  UNL16       0.1146
     63 H          -0.0972    6.3217   18.7276 H      16  UNL16       0.1146
     64 H          -0.6625    7.0865   17.4068 H      16  UNL16       0.1146
     65 N          -0.7495    4.8448   21.0798 N.3    17  UNL17      -0.3437
     66 H          -0.9810    4.2947   20.2539 H      17  UNL17       0.1146
     67 H          -0.4281    4.1781   21.7803 H      17  UNL17       0.1146
     68 H           0.0658    5.4014   20.8270 H      17  UNL17       0.1146
     69 N          -0.9780    6.9676   27.2223 N.3    18  UNL18      -0.3437
     70 H          -1.3121    6.0103   27.1210 H      18  UNL18       0.1146
     71 H          -0.1975    6.9250   27.8760 H      18  UNL18       0.1146
     72 H          -0.5759    7.2216   26.3211 H      18  UNL18       0.1146
     73 N          -0.7824    4.9959   29.6084 N.3    19  UNL19      -0.3437
     74 H          -0.0177    4.9056   28.9411 H      19  UNL19       0.1146
     75 H          -0.4190    4.6601   30.4992 H      19  UNL19       0.1146
     76 H          -0.9352    5.9965   29.7268 H      19  UNL19       0.1146
     77 N          -0.4655    8.2105    0.2483 N.3    20  UNL20      -0.3437
     78 H          -1.3001    8.7934    0.2941 H      20  UNL20       0.1146
     79 H           0.1448    8.5346    0.9972 H      20  UNL20       0.1146
     80 H          -0.7628    7.2729    0.5142 H      20  UNL20       0.1146
     81 N          -0.8149    9.3662    3.4137 N.3    21  UNL21      -0.3437
     82 H          -0.5816   10.3578    3.3880 H      21  UNL21       0.1146
     83 H          -1.2932    9.1673    2.5362 H      21  UNL21       0.1146
     84 H           0.0726    8.8675    3.3690 H      21  UNL21       0.1146
     85 N          -1.1278   10.0586    6.3462 N.3    22  UNL22      -0.3437
     86 H          -1.2695   10.7133    7.1140 H      22  UNL22       0.1146
     87 H          -0.4220   10.4803    5.7441 H      22  UNL22       0.1146
     88 H          -0.6907    9.2346    6.7567 H      22  UNL22       0.1146
     89 N          -0.7729    9.8805    9.5350 N.3    23  UNL23      -0.3437
     90 H          -1.0367   10.8570    9.6588 H      23  UNL23       0.1146
     91 H          -0.0953    9.8669    8.7741 H      23  UNL23       0.1146
     92 H          -0.2575    9.6202   10.3747 H      23  UNL23       0.1146
     93 N          -0.4047    8.4411   14.9536 N.3    24  UNL24      -0.3437
     94 H           0.2137    8.2100   15.7298 H      24  UNL24       0.1146
     95 H          -0.3590    9.4538   14.8499 H      24  UNL24       0.1146
     96 H           0.0342    8.0534   14.1197 H      24  UNL24       0.1146
     97 N          -0.6516    7.9009   21.0280 N.3    25  UNL25      -0.3437
     98 H          -1.5055    8.4197   21.2281 H      25  UNL25       0.1146
     99 H          -0.2613    8.3172   20.1838 H      25  UNL25       0.1146
    100 H          -0.0021    8.1285   21.7795 H      25  UNL25       0.1146
    101 N          -0.4052    9.9167   23.8658 N.3    26  UNL26      -0.3437
    102 H          -1.1102   10.2761   24.5078 H      26  UNL26       0.1146
    103 H           0.0860    9.1808   24.3715 H      26  UNL26       0.1146
    104 H          -0.9174    9.4501   23.1186 H      26  UNL26       0.1146
    105 N          -0.6826    8.5386   29.8490 N.3    27  UNL27      -0.3437
    106 H          -1.4704    8.0067   29.4817 H      27  UNL27       0.1146
    107 H          -0.1998    7.9156   30.4949 H      27  UNL27       0.1146
    108 H          -0.0472    8.6772   29.0646 H      27  UNL27       0.1146
    109 N          -0.4577    9.4288   32.7871 N.3    28  UNL28      -0.3437
    110 H           0.1329    8.6344   32.5453 H      28  UNL28       0.1146
    111 H          -1.3067    9.3268   32.2327 H      28  UNL28       0.1146
    112 H          -0.7368    9.2864   33.7568 H      28  UNL28       0.1146
    113 N          -0.4935   11.1065    0.9498 N.3    29  UNL29      -0.3437
    114 H          -0.5468   12.1216    0.8791 H      29  UNL29       0.1146
    115 H          -0.7422   10.7474    0.0291 H      29  UNL29       0.1146
    116 H           0.4926   10.8854    1.0805 H      29  UNL29       0.1146
    117 N          -0.9679   13.4517    2.7901 N.3    30  UNL30      -0.3437
    118 H          -1.4272   14.0774    3.4504 H      30  UNL30       0.1146
    119 H          -0.0171   13.8028    2.6852 H      30  UNL30       0.1146
    120 H          -0.8849   12.5540    3.2651 H      30  UNL30       0.1146
    121 N          -0.6144   10.7949   12.6313 N.3    31  UNL31      -0.3437
    122 H          -1.1853   11.1062   11.8468 H      31  UNL31       0.1146
    123 H           0.2491   11.3338   12.5817 H      31  UNL31       0.1146
    124 H          -1.0953   11.1119   13.4719 H      31  UNL31       0.1146
    125 N          -1.1031   13.3435   26.3961 N.3    32  UNL32      -0.3437
    126 H          -1.5404   12.4891   26.0538 H      32  UNL32       0.1146
    127 H          -0.5939   13.0803   27.2386 H      32  UNL32       0.1146
    128 H          -0.3955   13.5926   25.7065 H      32  UNL32       0.1146
    129 N          -0.6628   11.3789   29.8679 N.3    33  UNL33      -0.3437
    130 H          -1.4848   10.9654   29.4300 H      33  UNL33       0.1146
    131 H          -0.6310   11.0047   30.8152 H      33  UNL33       0.1146
    132 H           0.1420   10.9845   29.3831 H      33  UNL33       0.1146
    133 N          -0.8553   12.3683   33.8909 N.3    34  UNL34      -0.3437
    134 H          -1.3417   12.3024   32.9979 H      34  UNL34       0.1146
    135 H          -0.1143   11.6695   33.8595 H      34  UNL34       0.1146
    136 H          -0.3877   13.2736   33.8900 H      34  UNL34       0.1146
    137 N          -0.3172   16.4166    2.9604 N.3    35  UNL35      -0.3437
    138 H          -1.1544   16.0464    2.5128 H      35  UNL35       0.1146
    139 H          -0.0765   15.7549    3.6971 H      35  UNL35       0.1146
    140 H           0.4261   16.3473    2.2668 H      35  UNL35       0.1146
    141 N          -0.9398   15.9495    6.1699 N.3    36  UNL36      -0.3437
    142 H          -1.1774   16.5705    5.3977 H      36  UNL36       0.1146
    143 H          -0.1092   15.4386    5.8741 H      36  UNL36       0.1146
    144 H          -0.6405   16.5534    6.9341 H      36  UNL36       0.1146
    145 N          -0.4498   14.5082   12.4747 N.3    37  UNL37      -0.3437
    146 H          -1.4297   14.6605   12.2401 H      37  UNL37       0.1146
    147 H          -0.3516   13.5066   12.6344 H      37  UNL37       0.1146
    148 H           0.0768   14.7102   11.6260 H      37  UNL37       0.1146
    149 N          -0.4223   15.8038   15.6271 N.3    38  UNL38      -0.3437
    150 H           0.4200   16.3670   15.7355 H      38  UNL38       0.1146
    151 H          -0.2842   15.2516   14.7819 H      38  UNL38       0.1146
    152 H          -0.4176   15.1399   16.4002 H      38  UNL38       0.1146
    153 N          -1.3705   15.8873   18.7641 N.3    39  UNL39      -0.3437
    154 H          -0.7992   16.4207   19.4180 H      39  UNL39       0.1146
    155 H          -1.3856   16.4267   17.8997 H      39  UNL39       0.1146
    156 H          -0.8435   15.0400   18.5573 H      39  UNL39       0.1146
    157 N          -0.3911   14.4626   21.4679 N.3    40  UNL40      -0.3437
    158 H          -0.4337   13.4459   21.4141 H      40  UNL40       0.1146
    159 H           0.3165   14.6773   22.1691 H      40  UNL40       0.1146
    160 H          -0.0075   14.7752   20.5771 H      40  UNL40       0.1146
    161 N          -0.8366   16.3799   23.8030 N.3    41  UNL41      -0.3437
    162 H          -0.9408   17.1530   24.4586 H      41  UNL41       0.1146
    163 H           0.0628   16.5195   23.3448 H      41  UNL41       0.1146
    164 H          -0.7346   15.5408   24.3720 H      41  UNL41       0.1146
    165 N          -0.6814   14.3939   29.5416 N.3    42  UNL42      -0.3437
    166 H          -1.4178   13.8254   29.1259 H      42  UNL42       0.1146
    167 H          -0.4897   13.9822   30.4538 H      42  UNL42       0.1146
    168 H           0.1520   14.2296   28.9787 H      42  UNL42       0.1146
    169 N          -0.6917   15.5103   32.5852 N.3    43  UNL43      -0.3437
    170 H          -1.4429   15.3212   31.9231 H      43  UNL43       0.1146
    171 H          -0.0056   14.7689   32.4509 H      43  UNL43       0.1146
    172 H          -0.2444   16.3681   32.2651 H      43  UNL43       0.1146
    173 N           0.3601   18.4972    0.8466 N.3    44  UNL44      -0.3437
    174 H          -0.2608   17.7586    0.5189 H      44  UNL44       0.1146
    175 H           1.3066   18.1332    0.7471 H      44  UNL44       0.1146
    176 H           0.2778   19.2542    0.1695 H      44  UNL44       0.1146
    177 N          -0.8527   18.4256    8.8416 N.3    45  UNL45      -0.3437
    178 H          -0.9548   19.4281    8.6902 H      45  UNL45       0.1146
    179 H          -0.1733   18.1052    8.1530 H      45  UNL45       0.1146
    180 H          -0.4017   18.3231    9.7496 H      45  UNL45       0.1146
    181 N          -0.9622   19.0775   15.2093 N.3    46  UNL46      -0.3437
    182 H          -1.4839   19.7970   15.7079 H      46  UNL46       0.1146
    183 H          -1.2582   18.1881   15.6090 H      46  UNL46       0.1146
    184 H          -1.3145   19.0868   14.2532 H      46  UNL46       0.1146
    185 N          -0.7990   18.8548   18.0737 N.3    47  UNL47      -0.3437
    186 H          -0.2627   18.4380   18.8333 H      47  UNL47       0.1146
    187 H          -1.4844   19.4657   18.5158 H      47  UNL47       0.1146
    188 H          -0.1540   19.4687   17.5783 H      47  UNL47       0.1146
    189 N          -0.8523   18.5404   33.5614 N.3    48  UNL48      -0.3437
    190 H          -0.8001   18.5716   32.5442 H      48  UNL48       0.1146
    191 H          -0.2217   17.7946   33.8522 H      48  UNL48       0.1146
    192 H          -0.4317   19.4081   33.8910 H      48  UNL48       0.1146
    193 N          -0.9433   23.3599    3.5464 N.3    49  UNL49      -0.3437
    194 H          -1.2278   22.4687    3.9505 H      49  UNL49       0.1146
    195 H           0.0059   23.2221    3.2024 H      49  UNL49       0.1146
    196 H          -1.5250   23.4922    2.7203 H      49  UNL49       0.1146
    197 N          -1.0176   22.5740    6.5496 N.3    50  UNL50      -0.3437
    198 H          -1.4778   23.3036    6.0071 H      50  UNL50       0.1146
    199 H          -0.3576   22.1264    5.9152 H      50  UNL50       0.1146
    200 H          -0.4532   23.0565    7.2474 H      50  UNL50       0.1146
    201 N          -0.6342   21.7735    9.5212 N.3    51  UNL51      -0.3437
    202 H          -1.2842   22.4770    9.1736 H      51  UNL51       0.1146
    203 H          -0.1124   21.4474    8.7089 H      51  UNL51       0.1146
    204 H           0.0362   22.2736   10.1033 H      51  UNL51       0.1146
    205 N          -0.2439   22.0042   15.5740 N.3    52  UNL52      -0.3437
    206 H          -0.6069   22.6807   16.2440 H      52  UNL52       0.1146
    207 H          -0.2678   22.4671   14.6665 H      52  UNL52       0.1146
    208 H           0.7420   21.8843   15.8021 H      52  UNL52       0.1146
    209 N          -1.1884   20.5434   21.2980 N.3    53  UNL53      -0.3437
    210 H          -1.1966   21.5200   21.0074 H      53  UNL53       0.1146
    211 H          -1.0753   19.9975   20.4450 H      53  UNL53       0.1146
    212 H          -0.3282   20.4157   21.8293 H      53  UNL53       0.1146
    213 N          -0.4579   22.0598   23.7577 N.3    54  UNL54      -0.3437
    214 H           0.0944   22.6808   24.3473 H      54  UNL54       0.1146
    215 H          -0.3219   22.3856   22.8018 H      54  UNL54       0.1146
    216 H          -0.0067   21.1477   23.8103 H      54  UNL54       0.1146
    217 N          -0.6939   22.2041   26.7088 N.3    55  UNL55      -0.3437
    218 H          -1.2321   22.6998   25.9996 H      55  UNL55       0.1146
    219 H          -0.0422   21.6076   26.2008 H      55  UNL55       0.1146
    220 H          -0.1246   22.9099   27.1737 H      55  UNL55       0.1146
    221 N          -0.6835   20.6933   29.4202 N.3    56  UNL56      -0.3437
    222 H          -1.5205   20.4085   28.9135 H      56  UNL56       0.1146
    223 H          -0.5354   19.9855   30.1382 H      56  UNL56       0.1146
    224 H           0.0896   20.5936   28.7639 H      56  UNL56       0.1146
    225 N          -0.3792   21.4080   32.3455 N.3    57  UNL57      -0.3437
    226 H          -0.4780   22.3426   31.9515 H      57  UNL57       0.1146
    227 H           0.5204   21.0589   32.0181 H      57  UNL57       0.1146
    228 H          -0.2814   21.5362   33.3516 H      57  UNL57       0.1146
    229 N           1.9871    0.4596    0.9766 N.3    58  UNL58      -0.3437
    230 H           1.2766   -0.1954    0.6533 H      58  UNL58       0.1146
    231 H           2.6588   -0.0938    1.5068 H      58  UNL58       0.1146
    232 H           2.4795    0.7744    0.1418 H      58  UNL58       0.1146
    233 N           1.9706    0.5907    4.0654 N.3    59  UNL59      -0.3437
    234 H           1.6643   -0.0633    3.3465 H      59  UNL59       0.1146
    235 H           2.2186    0.0229    4.8744 H      59  UNL59       0.1146
    236 H           2.8434    0.9925    3.7261 H      59  UNL59       0.1146
    237 N           0.4009   -0.8711    6.6757 N.3    60  UNL60      -0.3437
    238 H           0.3291   -0.0426    6.0867 H      60  UNL60       0.1146
    239 H           1.3515   -0.8733    7.0427 H      60  UNL60       0.1146
    240 H          -0.2082   -0.7012    7.4748 H      60  UNL60       0.1146
    241 N           1.4131    0.0832    9.4196 N.3    61  UNL61      -0.3437
    242 H           1.5135    0.9464    9.9517 H      61  UNL61       0.1146
    243 H           2.0971    0.1364    8.6662 H      61  UNL61       0.1146
    244 H           1.7306   -0.6646   10.0348 H      61  UNL61       0.1146
    245 N           2.6366    0.4020   12.2849 N.3    62  UNL62      -0.3437
    246 H           3.2054    1.1399   11.8723 H      62  UNL62       0.1146
    247 H           3.2834   -0.2018   12.7903 H      62  UNL62       0.1146
    248 H           2.0617    0.8540   12.9945 H      62  UNL62       0.1146
    249 N           1.6893    0.4878   17.9596 N.3    63  UNL63      -0.3437
    250 H           2.2691    0.8342   17.1966 H      63  UNL63       0.1146
    251 H           2.3184   -0.0134   18.5852 H      63  UNL63       0.1146
    252 H           1.3796    1.3114   18.4734 H      63  UNL63       0.1146
    253 N           1.7935    0.7013   21.0536 N.3    64  UNL64      -0.3437
    254 H           1.1160    0.2981   20.4080 H      64  UNL64       0.1146
    255 H           2.1362   -0.0729   21.6207 H      64  UNL64       0.1146
    256 H           2.5820    1.0013   20.4820 H      64  UNL64       0.1146
    257 N           1.2831    0.1470   24.5727 N.3    65  UNL65      -0.3437
    258 H           1.7234   -0.6866   24.9597 H      65  UNL65       0.1146
    259 H           1.5819    0.9221   25.1629 H      65  UNL65       0.1146
    260 H           1.7205    0.3001   23.6652 H      65  UNL65       0.1146
    261 N           0.2412    0.2025   27.4751 N.3    66  UNL66      -0.3437
    262 H           0.3261   -0.5264   28.1820 H      66  UNL66       0.1146
    263 H          -0.2358    0.9801   27.9293 H      66  UNL66       0.1146
    264 H           1.1897    0.5251   27.2889 H      66  UNL66       0.1146
    265 N           2.4691   -0.4228   29.7546 N.3    67  UNL67      -0.3437
    266 H           1.7101    0.2530   29.6798 H      67  UNL67       0.1146
    267 H           2.8369   -0.5378   28.8112 H      67  UNL67       0.1146
    268 H           3.2044    0.0386   30.2883 H      67  UNL67       0.1146
    269 N           2.7603    0.5376   33.5467 N.3    68  UNL68      -0.3437
    270 H           2.7474    0.4720   32.5299 H      68  UNL68       0.1146
    271 H           1.8896    0.9971   33.8096 H      68  UNL68       0.1146
    272 H           2.6880   -0.4188   33.8908 H      68  UNL68       0.1146
    273 N           1.6098    3.2272    0.6301 N.3    69  UNL69      -0.3437
    274 H           2.1032    3.3369   -0.2547 H      69  UNL69       0.1146
    275 H           2.2769    2.8025    1.2729 H      69  UNL69       0.1146
    276 H           1.4453    4.1704    0.9788 H      69  UNL69       0.1146
    277 N           1.6617    3.6461    3.7116 N.3    70  UNL70      -0.3437
    278 H           1.1758    4.3671    4.2430 H      70  UNL70       0.1146
    279 H           2.2417    4.1392    3.0342 H      70  UNL70       0.1146
    280 H           2.3070    3.2031    4.3641 H      70  UNL70       0.1146
    281 N           1.9511    1.8296    6.6401 N.3    71  UNL71      -0.3437
    282 H           2.7966    1.4209    7.0355 H      71  UNL71       0.1146
    283 H           1.2639    1.8361    7.3926 H      71  UNL71       0.1146
    284 H           2.1722    2.8066    6.4533 H      71  UNL71       0.1146
    285 N           2.2279    3.3522    9.3404 N.3    72  UNL72      -0.3437
    286 H           2.9446    3.7417    8.7297 H      72  UNL72       0.1146
    287 H           2.7242    2.8068   10.0437 H      72  UNL72       0.1146
    288 H           1.8201    4.1441    9.8355 H      72  UNL72       0.1146
    289 N           2.1968    3.7404   12.4216 N.3    73  UNL73      -0.3437
    290 H           1.5023    3.2812   11.8340 H      73  UNL73       0.1146
    291 H           2.6811    2.9945   12.9192 H      73  UNL73       0.1146
    292 H           2.8819    4.1435   11.7840 H      73  UNL73       0.1146
    293 N           2.3154    3.8337   15.3972 N.3    74  UNL74      -0.3437
    294 H           2.1657    4.4800   16.1706 H      74  UNL74       0.1146
    295 H           2.7156    4.3879   14.6415 H      74  UNL74       0.1146
    296 H           3.0525    3.1987   15.7005 H      74  UNL74       0.1146
    297 N           0.4208    3.8139   18.0567 N.3    75  UNL75      -0.3437
    298 H           0.4885    3.3341   18.9531 H      75  UNL75       0.1146
    299 H           1.0370    4.6227   18.1238 H      75  UNL75       0.1146
    300 H           0.8478    3.1916   17.3720 H      75  UNL75       0.1146
    301 N           2.0116    3.7414   21.0161 N.3    76  UNL76      -0.3437
    302 H           1.9529    4.3763   20.2212 H      76  UNL76       0.1146
    303 H           2.8003    3.1250   20.8256 H      76  UNL76       0.1146
    304 H           2.2884    4.3136   21.8126 H      76  UNL76       0.1146
    305 N           1.6590    3.1734   23.9546 N.3    77  UNL77      -0.3437
    306 H           0.9213    3.4461   23.3067 H      77  UNL77       0.1146
    307 H           2.1594    2.4083   23.5046 H      77  UNL77       0.1146
    308 H           2.3106    3.9563   23.9840 H      77  UNL77       0.1146
    309 N           2.0338    3.5602   27.0034 N.3    78  UNL78      -0.3437
    310 H           1.5066    4.2274   27.5649 H      78  UNL78       0.1146
    311 H           2.3878    4.0836   26.2040 H      78  UNL78       0.1146
    312 H           2.8505    3.3093   27.5588 H      78  UNL78       0.1146
    313 N           1.4910    2.9279   29.8886 N.3    79  UNL79      -0.3437
    314 H           1.6156    2.7661   30.8869 H      79  UNL79       0.1146
    315 H           1.7616    3.8966   29.7250 H      79  UNL79       0.1146
    316 H           2.1943    2.3572   29.4216 H      79  UNL79       0.1146
    317 N           2.3348    3.7915   33.6467 N.3    80  UNL80      -0.3437
    318 H           2.2815    3.9134   32.6365 H      80  UNL80       0.1146
    319 H           1.5893    3.1410   33.8909 H      80  UNL80       0.1146
    320 H           3.2080    3.2972   33.8244 H      80  UNL80       0.1146
    321 N           1.7409    6.5834    0.9178 N.3    81  UNL81      -0.3437
    322 H           1.2647    6.1265    0.1414 H      81  UNL81       0.1146
    323 H           2.5879    6.0423    1.0854 H      81  UNL81       0.1146
    324 H           2.0506    7.4876    0.5644 H      81  UNL81       0.1146
    325 N           2.3650    7.1946    3.9941 N.3    82  UNL82      -0.3437
    326 H           1.5477    7.3701    4.5769 H      82  UNL82       0.1146
    327 H           3.1684    7.2261    4.6202 H      82  UNL82       0.1146
    328 H           2.2873    6.2266    3.6855 H      82  UNL82       0.1146
    329 N           2.2611    5.4035    6.2052 N.3    83  UNL83      -0.3437
    330 H           2.2185    6.3910    6.4532 H      83  UNL83       0.1146
    331 H           3.1201    5.2852    5.6699 H      83  UNL83       0.1146
    332 H           2.4037    4.9002    7.0797 H      83  UNL83       0.1146
    333 N           2.4067    6.4191    8.9952 N.3    84  UNL84      -0.3437
    334 H           1.7940    7.1108    9.4247 H      84  UNL84       0.1146
    335 H           3.0599    6.9439    8.4153 H      84  UNL84       0.1146
    336 H           2.9600    6.0240    9.7543 H      84  UNL84       0.1146
    337 N           1.7699    6.8634   11.8246 N.3    85  UNL85      -0.3437
    338 H           1.2317    7.3734   12.5237 H      85  UNL85       0.1146
    339 H           2.4129    7.5404   11.4164 H      85  UNL85       0.1146
    340 H           2.3484    6.2033   12.3422 H      85  UNL85       0.1146
    341 N           2.0599    6.8742   14.8561 N.3    86  UNL86      -0.3437
    342 H           1.5475    6.1644   14.3344 H      86  UNL86       0.1146
    343 H           2.7460    6.3703   15.4164 H      86  UNL86       0.1146
    344 H           2.5933    7.4002   14.1653 H      86  UNL86       0.1146
    345 N           1.9435    7.5443   17.5539 N.3    87  UNL87      -0.3437
    346 H           1.5880    8.0244   18.3794 H      87  UNL87       0.1146
    347 H           2.6683    8.1479   17.1682 H      87  UNL87       0.1146
    348 H           2.4233    6.7134   17.8970 H      87  UNL87       0.1146
    349 N           2.1714    6.9795   20.6396 N.3    88  UNL88      -0.3437
    350 H           1.6176    6.4999   19.9313 H      88  UNL88       0.1146
    351 H           2.7907    6.2745   21.0368 H      88  UNL88       0.1146
    352 H           2.7725    7.6287   20.1341 H      88  UNL88       0.1146
    353 N           1.0399    6.6554   23.4632 N.3    89  UNL89      -0.3437
    354 H           0.5629    7.1387   24.2230 H      89  UNL89       0.1146
    355 H           1.8705    7.2083   23.2562 H      89  UNL89       0.1146
    356 H           1.3774    5.7780   23.8565 H      89  UNL89       0.1146
    357 N           1.9114    6.5412   26.3365 N.3    90  UNL90      -0.3437
    358 H           1.1681    5.9092   26.0423 H      90  UNL90       0.1146
    359 H           2.4822    6.0153   26.9969 H      90  UNL90       0.1146
    360 H           2.4961    6.6887   25.5152 H      90  UNL90       0.1146
    361 N           1.8518    6.6990   29.2202 N.3    91  UNL91      -0.3437
    362 H           1.7318    6.8903   30.2139 H      91  UNL91       0.1146
    363 H           2.0203    7.6019   28.7787 H      91  UNL91       0.1146
    364 H           2.7243    6.1790   29.1377 H      91  UNL91       0.1146
    365 N           2.3404    6.5629   32.7592 N.3    92  UNL92      -0.3437
    366 H           2.6878    7.4687   32.4471 H      92  UNL92       0.1146
    367 H           2.5844    5.9002   32.0244 H      92  UNL92       0.1146
    368 H           2.9070    6.3079   33.5668 H      92  UNL92       0.1146
    369 N           2.5307    9.4068    2.0294 N.3    93  UNL93      -0.3437
    370 H           3.1885   10.1842    2.0669 H      93  UNL93       0.1146
    371 H           3.0975    8.5603    2.0023 H      93  UNL93       0.1146
    372 H           2.0552    9.3976    2.9306 H      93  UNL93       0.1146
    373 N           1.9334    9.6441    6.3088 N.3    94  UNL94      -0.3437
    374 H           1.2970    9.9990    7.0212 H      94  UNL94       0.1146
    375 H           2.5362   10.4258    6.0562 H      94  UNL94       0.1146
    376 H           2.5330    8.9679    6.7796 H      94  UNL94       0.1146
    377 N           2.4255    9.6283    9.3428 N.3    95  UNL95      -0.3437
    378 H           1.8063    9.7802   10.1377 H      95  UNL95       0.1146
    379 H           3.0320   10.4460    9.2988 H      95  UNL95       0.1146
    380 H           3.0263    8.8465    9.6001 H      95  UNL95       0.1146
    381 N           2.5541    9.8697   12.6370 N.3    96  UNL96      -0.3437
    382 H           1.6754    9.4771   12.3020 H      96  UNL96       0.1146
    383 H           3.1757    9.0769   12.7899 H      96  UNL96       0.1146
    384 H           2.9474   10.3877   11.8525 H      96  UNL96       0.1146
    385 N           1.9466   10.2075   15.5933 N.3    97  UNL97      -0.3437
    386 H           2.2793   10.9229   14.9485 H      97  UNL97       0.1146
    387 H           2.0912    9.3156   15.1222 H      97  UNL97       0.1146
    388 H           2.5928   10.2169   16.3811 H      97  UNL97       0.1146
    389 N           1.1641   10.6078   18.5783 N.3    98  UNL98      -0.3437
    390 H           0.5188    9.8638   18.8400 H      98  UNL98       0.1146
    391 H           2.0778   10.1667   18.4837 H      98  UNL98       0.1146
    392 H           0.8934   10.8970   17.6394 H      98  UNL98       0.1146
    393 N           1.9037    9.8885   21.1019 N.3    99  UNL99      -0.3437
    394 H           2.7779    9.4474   21.3841 H      99  UNL99       0.1146
    395 H           1.3092    9.8884   21.9295 H      99  UNL99       0.1146
    396 H           2.1285   10.8652   20.9178 H      99  UNL99       0.1146
    397 N           2.7554    9.5841   24.0313 N.3   100  UNL100     -0.3437
    398 H           3.4619    9.7319   24.7505 H     100  UNL100      0.1146
    399 H           2.6374   10.4823   23.5647 H     100  UNL100      0.1146
    400 H           3.1804    8.9640   23.3433 H     100  UNL100      0.1146
    401 N           2.1426    9.7343   27.0615 N.3   101  UNL101     -0.3437
    402 H           1.7457   10.2977   26.3110 H     101  UNL101      0.1146
    403 H           2.6582    8.9826   26.6059 H     101  UNL101      0.1146
    404 H           2.8426   10.3212   27.5132 H     101  UNL101      0.1146
    405 N           1.8651    9.4405   30.6869 N.3   102  UNL102     -0.3437
    406 H           2.6031    8.7480   30.8056 H     102  UNL102      0.1146
    407 H           2.2036   10.2912   31.1343 H     102  UNL102      0.1146
    408 H           1.8283    9.6436   29.6891 H     102  UNL102      0.1146
    409 N           2.4575    9.6009   33.8901 N.3   103  UNL103     -0.3437
    410 H           1.8341   10.4057   33.8473 H     103  UNL103      0.1146
    411 H           1.8553    8.7788   33.8906 H     103  UNL103      0.1146
    412 H           2.9554    9.5837   33.0011 H     103  UNL103      0.1146
    413 N           2.3461   12.7227    0.8787 N.3   104  UNL104     -0.3437
    414 H           1.4687   12.8327    1.3852 H     104  UNL104      0.1146
    415 H           3.0715   13.0968    1.4888 H     104  UNL104      0.1146
    416 H           2.5150   11.7193    0.8242 H     104  UNL104      0.1146
    417 N           1.6183   11.8076    3.7082 N.3   105  UNL105     -0.3437
    418 H           0.8600   11.6921    4.3790 H     105  UNL105      0.1146
    419 H           1.7224   12.8121    3.5721 H     105  UNL105      0.1146
    420 H           2.4645   11.4997    4.1851 H     105  UNL105      0.1146
    421 N           2.0678   13.0795    6.3671 N.3   106  UNL106     -0.3437
    422 H           1.3789   13.5887    6.9189 H     106  UNL106      0.1146
    423 H           2.7817   13.7603    6.1114 H     106  UNL106      0.1146
    424 H           2.5175   12.4292    7.0100 H     106  UNL106      0.1146
    425 N           1.1303   12.2010    9.1691 N.3   107  UNL107     -0.3437
    426 H           1.0116   11.5219    8.4187 H     107  UNL107      0.1146
    427 H           0.9615   11.6935   10.0365 H     107  UNL107      0.1146
    428 H           2.1199   12.4441    9.1740 H     107  UNL107      0.1146
    429 N           2.1645   13.0351   11.9834 N.3   108  UNL108     -0.3437
    430 H           1.7744   13.8298   12.4880 H     108  UNL108      0.1146
    431 H           2.9880   13.3876   11.4977 H     108  UNL108      0.1146
    432 H           2.5113   12.3933   12.6949 H     108  UNL108      0.1146
    433 N           1.2212   13.0739   14.9067 N.3   109  UNL109     -0.3437
    434 H           2.2285   12.9974   14.7729 H     109  UNL109      0.1146
    435 H           0.7955   12.5719   14.1288 H     109  UNL109      0.1146
    436 H           1.0069   12.5312   15.7421 H     109  UNL109      0.1146
    437 N           2.0080   13.3900   17.7756 N.3   110  UNL110     -0.3437
    438 H           1.1858   13.6842   18.3008 H     110  UNL110      0.1146
    439 H           2.6262   14.1995   17.7451 H     110  UNL110      0.1146
    440 H           2.4795   12.6982   18.3565 H     110  UNL110      0.1146
    441 N           2.0629   13.5139   20.8086 N.3   111  UNL111     -0.3437
    442 H           1.4208   12.9341   20.2701 H     111  UNL111      0.1146
    443 H           2.5796   12.8753   21.4116 H     111  UNL111      0.1146
    444 H           2.7400   13.8785   20.1400 H     111  UNL111      0.1146
    445 N           1.3815   12.4770   23.5665 N.3   112  UNL112     -0.3437
    446 H           0.8761   13.3304   23.8002 H     112  UNL112      0.1146
    447 H           2.3708   12.7193   23.5962 H     112  UNL112      0.1146
    448 H           1.2258   11.8366   24.3438 H     112  UNL112      0.1146
    449 N           1.9947   12.9059   26.6449 N.3   113  UNL113     -0.3437
    450 H           1.2496   12.2791   26.3447 H     113  UNL113      0.1146
    451 H           2.6183   12.3444   27.2231 H     113  UNL113      0.1146
    452 H           2.5230   13.1369   25.8047 H     113  UNL113      0.1146
    453 N           2.2219   12.5097   29.7452 N.3   114  UNL114     -0.3437
    454 H           2.8848   12.2415   30.4711 H     114  UNL114      0.1146
    455 H           1.4441   12.9585   30.2269 H     114  UNL114      0.1146
    456 H           2.6785   13.2433   29.2050 H     114  UNL114      0.1146
    457 N           2.0394   12.8656   32.8825 N.3   115  UNL115     -0.3437
    458 H           2.3207   13.5298   32.1628 H     115  UNL115      0.1146
    459 H           1.8371   11.9933   32.3960 H     115  UNL115      0.1146
    460 H           2.8723   12.6883   33.4422 H     115  UNL115      0.1146
    461 N           2.1454   15.6616    0.3371 N.3   116  UNL116     -0.3437
    462 H           1.7535   15.0766    1.0737 H     116  UNL116      0.1146
    463 H           2.6413   16.4152    0.8109 H     116  UNL116      0.1146
    464 H           2.8611   15.0975   -0.1187 H     116  UNL116      0.1146
    465 N           2.5240   15.5546    3.8971 N.3   117  UNL117     -0.3437
    466 H           2.4744   15.9256    2.9493 H     117  UNL117      0.1146
    467 H           3.2994   14.8935    3.8998 H     117  UNL117      0.1146
    468 H           2.8156   16.3319    4.4880 H     117  UNL117      0.1146
    469 N           2.0048   16.6940    6.8750 N.3   118  UNL118     -0.3437
    470 H           1.9160   15.7063    6.6408 H     118  UNL118      0.1146
    471 H           2.9447   16.9666    6.5909 H     118  UNL118      0.1146
    472 H           1.3685   17.1888    6.2516 H     118  UNL118      0.1146
    473 N           1.5764   15.0872    9.2713 N.3   119  UNL119     -0.3437
    474 H           1.7373   14.5566   10.1262 H     119  UNL119      0.1146
    475 H           1.9766   16.0102    9.4341 H     119  UNL119      0.1146
    476 H           2.1573   14.6514    8.5566 H     119  UNL119      0.1146
    477 N           2.9083   16.1414   11.9267 N.3   120  UNL120     -0.3437
    478 H           1.9188   15.9708   11.7530 H     120  UNL120      0.1146
    479 H           3.2095   15.4138   12.5735 H     120  UNL120      0.1146
    480 H           3.3851   15.9497   11.0467 H     120  UNL120      0.1146
    481 N           2.6300   15.5647   14.9115 N.3   121  UNL121     -0.3437
    482 H           1.8346   15.5566   14.2746 H     121  UNL121      0.1146
    483 H           3.2248   14.7873   14.6280 H     121  UNL121      0.1146
    484 H           3.1537   16.4119   14.6961 H     121  UNL121      0.1146
    485 N           1.5173   16.1139   18.1757 N.3   122  UNL122     -0.3437
    486 H           1.1035   16.9367   18.6118 H     122  UNL122      0.1146
    487 H           1.9622   16.4432   17.3201 H     122  UNL122      0.1146
    488 H           2.2748   15.8209   18.7912 H     122  UNL122      0.1146
    489 N           1.9091   16.5259   21.1369 N.3   123  UNL123     -0.3437
    490 H           1.6159   17.1236   21.9084 H     123  UNL123      0.1146
    491 H           2.3886   17.1354   20.4759 H     123  UNL123      0.1146
    492 H           2.6236   15.9068   21.5172 H     123  UNL123      0.1146
    493 N           2.2894   15.2891   24.0688 N.3   124  UNL124     -0.3437
    494 H           1.4329   15.2823   24.6208 H     124  UNL124      0.1146
    495 H           2.3447   16.2153   23.6475 H     124  UNL124      0.1146
    496 H           3.0557   15.2391   24.7387 H     124  UNL124      0.1146
    497 N           1.7523   15.7443   27.1066 N.3   125  UNL125     -0.3437
    498 H           1.4548   16.3901   27.8365 H     125  UNL125      0.1146
    499 H           2.2546   16.3069   26.4213 H     125  UNL125      0.1146
    500 H           2.4487   15.1368   27.5359 H     125  UNL125      0.1146
    501 N           2.2809   15.4809   30.3344 N.3   126  UNL126     -0.3437
    502 H           1.4183   15.9319   30.0330 H     126  UNL126      0.1146
    503 H           2.8677   15.4137   29.5040 H     126  UNL126      0.1146
    504 H           2.7442   16.1454   30.9526 H     126  UNL126      0.1146
    505 N           2.6816   15.5732   33.7701 N.3   127  UNL127     -0.3437
    506 H           1.6959   15.3201   33.7179 H     127  UNL127      0.1146
    507 H           3.0676   15.3915   32.8447 H     127  UNL127      0.1146
    508 H           2.7058   16.5847   33.8908 H     127  UNL127      0.1146
    509 N           2.5640   20.4682    0.2288 N.3   128  UNL128     -0.3437
    510 H           1.6514   20.9196    0.2701 H     128  UNL128      0.1146
    511 H           3.2501   21.2082    0.3706 H     128  UNL128      0.1146
    512 H           2.6199   19.8718    1.0532 H     128  UNL128      0.1146
    513 N           1.6575   18.4130    3.3851 N.3   129  UNL129     -0.3437
    514 H           1.8648   19.3431    3.7461 H     129  UNL129      0.1146
    515 H           2.5486   18.0261    3.0775 H     129  UNL129      0.1146
    516 H           1.3726   17.8565    4.1898 H     129  UNL129      0.1146
    517 N           2.6020   19.5025    6.4703 N.3   130  UNL130     -0.3437
    518 H           1.6085   19.3424    6.6310 H     130  UNL130      0.1146
    519 H           3.0857   19.0854    7.2644 H     130  UNL130      0.1146
    520 H           2.8506   18.9357    5.6608 H     130  UNL130      0.1146
    521 N           1.6558   19.6115    9.2817 N.3   131  UNL131     -0.3437
    522 H           0.9973   20.0093    9.9499 H     131  UNL131      0.1146
    523 H           2.5523   20.0572    9.4716 H     131  UNL131      0.1146
    524 H           1.7670   18.6335    9.5452 H     131  UNL131      0.1146
    525 N           1.9462   18.7237   12.1921 N.3   132  UNL132     -0.3437
    526 H           2.6711   18.5125   12.8765 H     132  UNL132      0.1146
    527 H           1.2008   19.1898   12.7074 H     132  UNL132      0.1146
    528 H           2.3422   19.4287   11.5720 H     132  UNL132      0.1146
    529 N           1.8706   19.7218   15.1524 N.3   133  UNL133     -0.3437
    530 H           2.1066   18.7655   15.4133 H     133  UNL133      0.1146
    531 H           2.1200   20.3010   15.9529 H     133  UNL133      0.1146
    532 H           2.5177   19.9778   14.4081 H     133  UNL133      0.1146
    533 N           2.2777   18.9280   18.1844 N.3   134  UNL134     -0.3437
    534 H           2.6524   18.3835   17.4088 H     134  UNL134      0.1146
    535 H           2.7371   18.5753   19.0228 H     134  UNL134      0.1146
    536 H           2.6230   19.8777   18.0535 H     134  UNL134      0.1146
    537 N           1.8593   19.6816   21.0936 N.3   135  UNL135     -0.3437
    538 H           1.2376   19.0848   20.5499 H     135  UNL135      0.1146
    539 H           2.5306   19.0570   21.5381 H     135  UNL135      0.1146
    540 H           2.3895   20.2268   20.4153 H     135  UNL135      0.1146
    541 N           1.6418   18.5691   24.0003 N.3   136  UNL136     -0.3437
    542 H           1.1383   19.3872   24.3404 H     136  UNL136      0.1146
    543 H           2.5864   18.8882   23.7897 H     136  UNL136      0.1146
    544 H           1.7288   17.9411   24.7980 H     136  UNL136      0.1146
    545 N           2.5324   18.7431   27.1821 N.3   137  UNL137     -0.3437
    546 H           1.6246   18.3237   26.9863 H     137  UNL137      0.1146
    547 H           3.1414   17.9761   27.4632 H     137  UNL137      0.1146
    548 H           2.8894   19.0712   26.2858 H     137  UNL137      0.1146
    549 N           1.7015   18.5653   30.1137 N.3   138  UNL138     -0.3437
    550 H           1.4467   17.9184   29.3687 H     138  UNL138      0.1146
    551 H           2.4797   18.1316   30.6083 H     138  UNL138      0.1146
    552 H           2.0859   19.3882   29.6518 H     138  UNL138      0.1146
    553 N           2.0495   18.9191   33.1018 N.3   139  UNL139     -0.3437
    554 H           2.6618   18.7129   33.8898 H     139  UNL139      0.1146
    555 H           2.6346   19.3751   32.4032 H     139  UNL139      0.1146
    556 H           1.7892   18.0174   32.7049 H     139  UNL139      0.1146
    557 N           2.1327   21.6611    3.0387 N.3   140  UNL140     -0.3437
    558 H           1.3815   21.4947    2.3706 H     140  UNL140      0.1146
    559 H           2.9999   21.4631    2.5415 H     140  UNL140      0.1146
    560 H           2.1336   22.6646    3.2161 H     140  UNL140      0.1146
    561 N           2.2346   22.7176    5.7626 N.3   141  UNL141     -0.3437
    562 H           1.4837   23.2788    6.1620 H     141  UNL141      0.1146
    563 H           3.0638   23.3098    5.7727 H     141  UNL141      0.1146
    564 H           2.4144   21.9713    6.4327 H     141  UNL141      0.1146
    565 N           2.0074   23.0780    8.7285 N.3   142  UNL142     -0.3437
    566 H           2.2198   23.3980    9.6724 H     142  UNL142      0.1146
    567 H           2.8338   23.2843    8.1693 H     142  UNL142      0.1146
    568 H           1.9512   22.0620    8.7823 H     142  UNL142      0.1146
    569 N           2.0468   21.9145   11.7403 N.3   143  UNL143     -0.3437
    570 H           2.4479   21.5665   10.8706 H     143  UNL143      0.1146
    571 H           2.5341   21.4254   12.4898 H     143  UNL143      0.1146
    572 H           2.3316   22.8904   11.8102 H     143  UNL143      0.1146
    573 N           2.1215   23.3479   14.2667 N.3   144  UNL144     -0.3437
    574 H           2.0978   23.2745   15.2828 H     144  UNL144      0.1146
    575 H           1.4422   24.0667   14.0211 H     144  UNL144      0.1146
    576 H           3.0354   23.7340   14.0342 H     144  UNL144      0.1146
    577 N           2.3744   22.2968   17.6834 N.3   145  UNL145     -0.3437
    578 H           1.4011   22.0637   17.8749 H     145  UNL145      0.1146
    579 H           2.4721   23.2892   17.8928 H     145  UNL145      0.1146
    580 H           2.9244   21.8059   18.3870 H     145  UNL145      0.1146
    581 N           1.6030   22.7012   20.3656 N.3   146  UNL146     -0.3437
    582 H           0.9234   22.0530   20.7610 H     146  UNL146      0.1146
    583 H           1.6190   23.5066   20.9896 H     146  UNL146      0.1146
    584 H           2.5116   22.2507   20.4653 H     146  UNL146      0.1146
    585 N           2.2820   21.9847   23.0351 N.3   147  UNL147     -0.3437
    586 H           2.1945   22.6423   23.8086 H     147  UNL147      0.1146
    587 H           3.2347   22.0850   22.6875 H     147  UNL147      0.1146
    588 H           2.2308   21.0552   23.4496 H     147  UNL147      0.1146
    589 N           2.3671   22.6272   26.4923 N.3   148  UNL148     -0.3437
    590 H           2.0615   22.9960   27.3918 H     148  UNL148      0.1146
    591 H           3.2152   23.1388   26.2525 H     148  UNL148      0.1146
    592 H           2.6586   21.6666   26.6671 H     148  UNL148      0.1146
    593 N           2.1477   21.8668   29.8893 N.3   149  UNL149     -0.3437
    594 H           2.7467   21.3093   30.4966 H     149  UNL149      0.1146
    595 H           2.5773   22.7897   29.8415 H     149  UNL149      0.1146
    596 H           2.2409   21.4652   28.9575 H     149  UNL149      0.1146
    597 N           2.2344   22.3185   33.6015 N.3   150  UNL150     -0.3437
    598 H           3.2121   22.3098   33.8886 H     150  UNL150      0.1146
    599 H           2.2408   22.3083   32.5825 H     150  UNL150      0.1146
    600 H           1.8492   21.4199   33.8888 H     150  UNL150      0.1146
    601 N           1.9130   23.4660    0.7010 N.3   151  UNL151     -0.3437
    602 H           1.8860   24.3710    0.2335 H     151  UNL151      0.1146
    603 H           2.7616   23.4665    1.2653 H     151  UNL151      0.1146
    604 H           1.1368   23.4677    1.3613 H     151  UNL151      0.1146
    605 N           0.7133   24.4757   17.4441 N.3   152  UNL152     -0.3437
    606 H           0.8385   24.0384   18.3559 H     152  UNL152      0.1146
    607 H          -0.2788   24.3928   17.2267 H     152  UNL152      0.1146
    608 H           0.8883   25.4699   17.5829 H     152  UNL152      0.1146
    609 N           5.0923    0.7003    0.4572 N.3   153  UNL153     -0.3437
    610 H           4.5034   -0.1177    0.3073 H     153  UNL153      0.1146
    611 H           5.6263    0.5105    1.3042 H     153  UNL153      0.1146
    612 H           5.7678    0.7036   -0.3057 H     153  UNL153      0.1146
    613 N           4.6377   -0.9515    3.5687 N.3   154  UNL154     -0.3437
    614 H           4.1817   -0.8864    4.4776 H     154  UNL154      0.1146
    615 H           4.7476    0.0069    3.2403 H     154  UNL154      0.1146
    616 H           5.5794   -1.2956    3.7509 H     154  UNL154      0.1146
    617 N           5.1165    0.3132    6.6477 N.3   155  UNL155     -0.3437
    618 H           4.6213    0.8672    5.9505 H     155  UNL155      0.1146
    619 H           5.8087   -0.2307    6.1345 H     155  UNL155      0.1146
    620 H           5.6439    0.9781    7.2119 H     155  UNL155      0.1146
    621 N           4.4681    0.8262    9.5833 N.3   156  UNL156     -0.3437
    622 H           4.7279    1.4758   10.3241 H     156  UNL156      0.1146
    623 H           3.8347    0.1518   10.0104 H     156  UNL156      0.1146
    624 H           3.9050    1.3622    8.9245 H     156  UNL156      0.1146
    625 N           5.8190    0.2867   12.3283 N.3   157  UNL157     -0.3437
    626 H           5.8729   -0.4544   13.0256 H     157  UNL157      0.1146
    627 H           6.6205    0.8922   12.4994 H     157  UNL157      0.1146
    628 H           5.9920   -0.1606   11.4291 H     157  UNL157      0.1146
    629 N           4.1665    1.1452   14.8079 N.3   158  UNL158     -0.3437
    630 H           4.0008    1.5912   13.9068 H     158  UNL158      0.1146
    631 H           4.4752    0.1968   14.5993 H     158  UNL158      0.1146
    632 H           4.9721    1.6202   15.2125 H     158  UNL158      0.1146
    633 N           4.7931    0.4516   17.7592 N.3   159  UNL159     -0.3437
    634 H           4.2471    1.0281   18.3978 H     159  UNL159      0.1146
    635 H           5.3684    1.0971   17.2200 H     159  UNL159      0.1146
    636 H           5.4383   -0.0796   18.3422 H     159  UNL159      0.1146
    637 N           5.0830    0.7913   21.3326 N.3   160  UNL160     -0.3437
    638 H           4.3127    0.1606   21.5496 H     160  UNL160      0.1146
    639 H           5.8047    0.6026   22.0267 H     160  UNL160      0.1146
    640 H           5.4617    0.4757   20.4408 H     160  UNL160      0.1146
    641 N           4.6155   -0.3095   24.2058 N.3   161  UNL161     -0.3437
    642 H           5.4949    0.2024   24.1521 H     161  UNL161      0.1146
    643 H           3.8789    0.3841   24.0843 H     161  UNL161      0.1146
    644 H           4.5838   -0.9010   23.3766 H     161  UNL161      0.1146
    645 N           3.6773    0.8491   26.7168 N.3   162  UNL162     -0.3437
    646 H           3.2417    1.1676   27.5812 H     162  UNL162      0.1146
    647 H           3.1499    0.0284   26.4223 H     162  UNL162      0.1146
    648 H           3.4850    1.5703   26.0231 H     162  UNL162      0.1146
    649 N           5.2243    1.2854   29.1674 N.3   163  UNL163     -0.3437
    650 H           4.6974    1.6355   29.9662 H     163  UNL163      0.1146
    651 H           6.1371    1.7360   29.2137 H     163  UNL163      0.1146
    652 H           5.3896    0.2968   29.3513 H     163  UNL163      0.1146
    653 N           4.5356    3.9170    0.5861 N.3   164  UNL164     -0.3437
    654 H           4.3575    2.9138    0.5672 H     164  UNL164      0.1146
    655 H           5.2440    4.0630    1.3039 H     164  UNL164      0.1146
    656 H           4.9848    4.1392   -0.3011 H     164  UNL164      0.1146
    657 N           5.0477    2.6305    3.4300 N.3   165  UNL165     -0.3437
    658 H           4.2106    3.2021    3.3256 H     165  UNL165      0.1146
    659 H           5.2325    2.2324    2.5103 H     165  UNL165      0.1146
    660 H           5.8107    3.2806    3.6130 H     165  UNL165      0.1146
    661 N           4.8788    3.4423    6.3819 N.3   166  UNL166     -0.3437
    662 H           4.4527    4.1389    6.9915 H     166  UNL166      0.1146
    663 H           5.3656    3.9651    5.6552 H     166  UNL166      0.1146
    664 H           5.6044    2.9901    6.9364 H     166  UNL166      0.1146
    665 N           5.2965    3.7530    9.4363 N.3   167  UNL167     -0.3437
    666 H           4.9241    4.4566   10.0725 H     167  UNL167      0.1146
    667 H           5.8085    4.2653    8.7195 H     167  UNL167      0.1146
    668 H           5.9968    3.2370    9.9669 H     167  UNL167      0.1146
    669 N           5.2644    3.3486   12.4503 N.3   168  UNL168     -0.3437
    670 H           5.8922    2.8320   13.0646 H     168  UNL168      0.1146
    671 H           4.6325    3.8627   13.0626 H     168  UNL168      0.1146
    672 H           5.8395    4.0507   11.9870 H     168  UNL168      0.1146
    673 N           5.1581    4.7847   15.4615 N.3   169  UNL169     -0.3437
    674 H           5.5753    5.0646   16.3481 H     169  UNL169      0.1146
    675 H           5.8145    5.0748   14.7381 H     169  UNL169      0.1146
    676 H           5.1668    3.7657   15.4563 H     169  UNL169      0.1146
    677 N           3.3145    3.4807   18.3081 N.3   170  UNL170     -0.3437
    678 H           3.9830    3.0904   18.9708 H     170  UNL170      0.1146
    679 H           3.8622    4.0301   17.6473 H     170  UNL170      0.1146
    680 H           2.9481    2.6900   17.7800 H     170  UNL170      0.1146
    681 N           5.0016    4.4256   20.7535 N.3   171  UNL171     -0.3437
    682 H           4.4729    4.4941   21.6220 H     171  UNL171      0.1146
    683 H           5.8454    4.9793   20.8941 H     171  UNL171      0.1146
    684 H           5.3093    3.4564   20.6878 H     171  UNL171      0.1146
    685 N           5.2181    2.7467   23.3553 N.3   172  UNL172     -0.3437
    686 H           4.3732    3.2359   23.6473 H     172  UNL172      0.1146
    687 H           5.8480    3.4632   22.9972 H     172  UNL172      0.1146
    688 H           5.6487    2.3955   24.2094 H     172  UNL172      0.1146
    689 N           4.8951    3.9137   26.0194 N.3   173  UNL173     -0.3437
    690 H           4.5608    4.3467   26.8791 H     173  UNL173      0.1146
    691 H           5.7029    4.4608   25.7251 H     173  UNL173      0.1146
    692 H           5.2575    2.9999   26.2877 H     173  UNL173      0.1146
    693 N           4.4945    4.2844   29.8112 N.3   174  UNL174     -0.3437
    694 H           3.9835    3.5991   29.2567 H     174  UNL174      0.1146
    695 H           5.1269    3.7498   30.4051 H     174  UNL174      0.1146
    696 H           5.0869    4.7913   29.1550 H     174  UNL174      0.1146
    697 N           5.2263    1.6041   32.5797 N.3   175  UNL175     -0.3437
    698 H           4.6995    2.2770   32.0246 H     175  UNL175      0.1146
    699 H           5.6746    0.9787   31.9116 H     175  UNL175      0.1146
    700 H           5.9791    2.1312   33.0198 H     175  UNL175      0.1146
    701 N           4.9952    6.7581    0.2393 N.3   176  UNL176     -0.3437
    702 H           4.2461    7.3729    0.5543 H     176  UNL176      0.1146
    703 H           5.5525    7.3064   -0.4142 H     176  UNL176      0.1146
    704 H           5.5896    6.6005    1.0518 H     176  UNL176      0.1146
    705 N           4.8683    5.7270    3.2887 N.3   177  UNL177     -0.3437
    706 H           4.6861    5.1873    4.1337 H     177  UNL177      0.1146
    707 H           5.0396    6.6829    3.5975 H     177  UNL177      0.1146
    708 H           5.7567    5.3863    2.9240 H     177  UNL177      0.1146
    709 N           5.2141    6.8090    6.1610 N.3   178  UNL178     -0.3437
    710 H           4.3334    6.9601    6.6509 H     178  UNL178      0.1146
    711 H           5.8304    7.5669    6.4511 H     178  UNL178      0.1146
    712 H           5.6118    5.9574    6.5546 H     178  UNL178      0.1146
    713 N           5.6329    6.8580    9.0446 N.3   179  UNL179     -0.3437
    714 H           4.8071    7.1957    9.5370 H     179  UNL179      0.1146
    715 H           6.2511    7.6624    8.9484 H     179  UNL179      0.1146
    716 H           6.1009    6.2194    9.6862 H     179  UNL179      0.1146
    717 N           4.8455    6.4688   12.0423 N.3   180  UNL180     -0.3437
    718 H           4.3073    7.2115   12.4862 H     180  UNL180      0.1146
    719 H           5.6710    6.9174   11.6478 H     180  UNL180      0.1146
    720 H           5.1828    5.8756   12.7990 H     180  UNL180      0.1146
    721 N           5.3020    7.6395   15.0968 N.3   181  UNL181     -0.3437
    722 H           4.7001    6.9678   14.6225 H     181  UNL181      0.1146
    723 H           5.9956    7.0884   15.6004 H     181  UNL181      0.1146
    724 H           5.8113    8.1281   14.3618 H     181  UNL181      0.1146
    725 N           4.9848    7.1676   18.0335 N.3   182  UNL182     -0.3437
    726 H           4.5136    6.7852   17.2149 H     182  UNL182      0.1146
    727 H           5.4251    6.3756   18.4997 H     182  UNL182      0.1146
    728 H           5.7467    7.7422   17.6762 H     182  UNL182      0.1146
    729 N           5.1536    7.6348   21.0271 N.3   183  UNL183     -0.3437
    730 H           4.8144    6.8714   20.4436 H     183  UNL183      0.1146
    731 H           5.3657    7.2221   21.9344 H     183  UNL183      0.1146
    732 H           6.0492    7.9153   20.6300 H     183  UNL183      0.1146
    733 N           4.0669    5.8397   23.8222 N.3   184  UNL184     -0.3437
    734 H           3.4226    5.6505   23.0558 H     184  UNL184      0.1146
    735 H           4.9436    5.3850   23.5709 H     184  UNL184      0.1146
    736 H           4.2517    6.8414   23.7931 H     184  UNL184      0.1146
    737 N           5.4220    6.7225   26.7597 N.3   185  UNL185     -0.3437
    738 H           4.5124    6.4558   26.3855 H     185  UNL185      0.1146
    739 H           5.6626    6.0099   27.4473 H     185  UNL185      0.1146
    740 H           6.0849    6.6092   25.9941 H     185  UNL185      0.1146
    741 N           4.7747    7.3551   30.3350 N.3   186  UNL186     -0.3437
    742 H           4.8969    7.5042   29.3344 H     186  UNL186      0.1146
    743 H           5.2827    6.4997   30.5556 H     186  UNL186      0.1146
    744 H           5.2818    8.1095   30.7954 H     186  UNL186      0.1146
    745 N           5.3873    4.6382   32.9190 N.3   187  UNL187     -0.3437
    746 H           4.5705    5.1896   32.6597 H     187  UNL187      0.1146
    747 H           6.1635    5.0137   32.3760 H     187  UNL187      0.1146
    748 H           5.5862    4.8708   33.8910 H     187  UNL187      0.1146
    749 N           5.6089    9.1397    1.8216 N.3   188  UNL188     -0.3437
    750 H           4.9599    9.2680    1.0466 H     188  UNL188      0.1146
    751 H           5.4863    9.9497    2.4277 H     188  UNL188      0.1146
    752 H           5.2622    8.3395    2.3488 H     188  UNL188      0.1146
    753 N           4.5834    9.1712    4.7806 N.3   189  UNL189     -0.3437
    754 H           4.9463    9.9809    5.2817 H     189  UNL189      0.1146
    755 H           4.1002    9.5404    3.9629 H     189  UNL189      0.1146
    756 H           5.3978    8.6731    4.4243 H     189  UNL189      0.1146
    757 N           4.9195    9.5114    7.6673 N.3   190  UNL190     -0.3437
    758 H           5.4253    9.7953    8.5051 H     190  UNL190      0.1146
    759 H           4.3949    8.6767    7.9252 H     190  UNL190      0.1146
    760 H           4.2255   10.2382    7.4984 H     190  UNL190      0.1146
    761 N           5.0675    9.1701   10.9376 N.3   191  UNL191     -0.3437
    762 H           4.6879   10.0335   10.5519 H     191  UNL191      0.1146
    763 H           6.0222    9.1021   10.5879 H     191  UNL191      0.1146
    764 H           5.1465    9.3221   11.9421 H     191  UNL191      0.1146
    765 N           4.8895   10.5033   15.0892 N.3   192  UNL192     -0.3437
    766 H           5.6700   11.1066   14.8337 H     192  UNL192      0.1146
    767 H           4.6477    9.9847   14.2460 H     192  UNL192      0.1146
    768 H           5.2665    9.8178   15.7421 H     192  UNL192      0.1146
    769 N           4.7159   10.2527   18.2503 N.3   193  UNL193     -0.3437
    770 H           4.2115    9.6563   17.5960 H     193  UNL193      0.1146
    771 H           5.3364    9.6353   18.7721 H     193  UNL193      0.1146
    772 H           5.3209   10.8441   17.6824 H     193  UNL193      0.1146
    773 N           4.8164   11.1037   20.9077 N.3   194  UNL194     -0.3437
    774 H           4.0558   11.2522   21.5694 H     194  UNL194      0.1146
    775 H           5.6559   11.4640   21.3591 H     194  UNL194      0.1146
    776 H           4.9419   10.0943   20.8460 H     194  UNL194      0.1146
    777 N           5.8112    9.2179   23.6143 N.3   195  UNL195     -0.3437
    778 H           6.4006    8.6583   22.9996 H     195  UNL195      0.1146
    779 H           5.2026    9.7600   23.0027 H     195  UNL195      0.1146
    780 H           5.2055    8.5579   24.0999 H     195  UNL195      0.1146
    781 N           5.2520    9.4678   26.8206 N.3   196  UNL196     -0.3437
    782 H           4.6729   10.1642   26.3538 H     196  UNL196      0.1146
    783 H           5.8404    9.0600   26.0954 H     196  UNL196      0.1146
    784 H           5.8798    9.9884   27.4316 H     196  UNL196      0.1146
    785 N           4.4107   10.2897   29.6209 N.3   197  UNL197     -0.3437
    786 H           3.9891    9.4971   29.1388 H     197  UNL197      0.1146
    787 H           4.3334   10.0865   30.6164 H     197  UNL197      0.1146
    788 H           5.4056   10.2539   29.4034 H     197  UNL197      0.1146
    789 N           4.9345    7.9852   33.7588 N.3   198  UNL198     -0.3437
    790 H           5.8808    8.3586   33.8163 H     198  UNL198      0.1146
    791 H           4.6198    8.1627   32.8060 H     198  UNL198      0.1146
    792 H           5.0262    6.9736   33.8405 H     198  UNL198      0.1146
    793 N           5.2063   11.7947    0.3599 N.3   199  UNL199     -0.3437
    794 H           4.5712   11.7116   -0.4326 H     199  UNL199      0.1146
    795 H           6.1473   11.7435   -0.0278 H     199  UNL199      0.1146
    796 H           5.0976   12.7460    0.7084 H     199  UNL199      0.1146
    797 N           4.7349   12.2656    3.2993 N.3   200  UNL200     -0.3437
    798 H           4.4299   13.0739    3.8397 H     200  UNL200      0.1146
    799 H           5.6009   12.5451    2.8406 H     200  UNL200      0.1146
    800 H           4.9951   11.5541    3.9807 H     200  UNL200      0.1146
    801 N           5.0639   12.3323    6.5071 N.3   201  UNL201     -0.3437
    802 H           4.6138   13.0983    7.0062 H     201  UNL201      0.1146
    803 H           5.5719   12.7605    5.7345 H     201  UNL201      0.1146
    804 H           5.7729   11.9634    7.1392 H     201  UNL201      0.1146
    805 N           4.7221   12.3254    9.3832 N.3   202  UNL202     -0.3437
    806 H           5.1314   13.2097    9.6813 H     202  UNL202      0.1146
    807 H           5.4632   11.6309    9.4654 H     202  UNL202      0.1146
    808 H           4.0305   12.0832   10.0913 H     202  UNL202      0.1146
    809 N           5.0590   11.7776   12.3135 N.3   203  UNL203     -0.3437
    810 H           4.6951   12.4918   12.9427 H     203  UNL203      0.1146
    811 H           5.6074   12.2738   11.6125 H     203  UNL203      0.1146
    812 H           5.7265   11.2355   12.8602 H     203  UNL203      0.1146
    813 N           4.5060   13.0078   15.7958 N.3   204  UNL204     -0.3437
    814 H           4.1123   13.8053   16.2931 H     204  UNL204      0.1146
    815 H           4.7248   13.3416   14.8581 H     204  UNL204      0.1146
    816 H           5.4019   12.8137   16.2409 H     204  UNL204      0.1146
    817 N           4.9811   13.5651   18.7669 N.3   205  UNL205     -0.3437
    818 H           4.5843   12.7543   18.2940 H     205  UNL205      0.1146
    819 H           5.6456   13.1969   19.4460 H     205  UNL205      0.1146
    820 H           5.5370   14.0542   18.0668 H     205  UNL205      0.1146
    821 N           5.2762   14.0563   21.8948 N.3   206  UNL206     -0.3437
    822 H           4.5743   13.5931   21.3193 H     206  UNL206      0.1146
    823 H           5.7341   13.3183   22.4277 H     206  UNL206      0.1146
    824 H           5.9785   14.4131   21.2484 H     206  UNL206      0.1146
    825 N           4.7879   11.9941   24.3676 N.3   207  UNL207     -0.3437
    826 H           4.4181   11.8653   23.4268 H     207  UNL207      0.1146
    827 H           5.7008   11.5413   24.3750 H     207  UNL207      0.1146
    828 H           4.9688   12.9923   24.4641 H     207  UNL207      0.1146
    829 N           5.2657   12.4978   27.1691 N.3   208  UNL208     -0.3437
    830 H           4.6047   13.0113   26.5879 H     208  UNL208      0.1146
    831 H           5.8760   11.9969   26.5249 H     208  UNL208      0.1146
    832 H           5.8494   13.2014   27.6192 H     208  UNL208      0.1146
    833 N           5.4185   12.9947   30.2237 N.3   209  UNL209     -0.3437
    834 H           4.8391   13.5263   29.5756 H     209  UNL209      0.1146
    835 H           5.9754   12.3633   29.6496 H     209  UNL209      0.1146
    836 H           6.0755   13.6621   30.6253 H     209  UNL209      0.1146
    837 N           5.0510   11.1060   32.8425 N.3   210  UNL210     -0.3437
    838 H           4.1329   11.2087   32.4125 H     210  UNL210      0.1146
    839 H           4.9669   10.3350   33.5036 H     210  UNL210      0.1146
    840 H           5.6715   10.7765   32.1044 H     210  UNL210      0.1146
    841 N           5.1826   16.7554    0.2321 N.3   211  UNL211     -0.3437
    842 H           4.7009   17.1550    1.0363 H     211  UNL211      0.1146
    843 H           6.1763   16.7871    0.4556 H     211  UNL211      0.1146
    844 H           4.9299   15.7684    0.2152 H     211  UNL211      0.1146
    845 N           5.5372   15.1413    2.5583 N.3   212  UNL212     -0.3437
    846 H           4.9438   14.4888    2.0478 H     212  UNL212      0.1146
    847 H           4.9317   15.9116    2.8383 H     212  UNL212      0.1146
    848 H           5.8023   14.6653    3.4193 H     212  UNL212      0.1146
    849 N           4.9244   15.4405    5.8615 N.3   213  UNL213     -0.3437
    850 H           4.9862   16.1536    6.5869 H     213  UNL213      0.1146
    851 H           4.9136   15.9423    4.9746 H     213  UNL213      0.1146
    852 H           5.8092   14.9357    5.8878 H     213  UNL213      0.1146
    853 N           4.6136   15.4050    9.0805 N.3   214  UNL214     -0.3437
    854 H           5.1572   16.0372    9.6663 H     214  UNL214      0.1146
    855 H           3.9855   15.9957    8.5373 H     214  UNL214      0.1146
    856 H           5.2713   15.0056    8.4125 H     214  UNL214      0.1146
    857 N           5.6244   14.6820   11.8392 N.3   215  UNL215     -0.3437
    858 H           4.7542   14.2852   11.4876 H     215  UNL215      0.1146
    859 H           5.5037   15.6935   11.8107 H     215  UNL215      0.1146
    860 H           5.6685   14.4322   12.8261 H     215  UNL215      0.1146
    861 N           5.5693   15.5308   15.6145 N.3   216  UNL216     -0.3437
    862 H           6.2290   14.7670   15.7550 H     216  UNL216      0.1146
    863 H           6.1046   16.3897   15.7337 H     216  UNL216      0.1146
    864 H           5.3068   15.4978   14.6305 H     216  UNL216      0.1146
    865 N           4.6895   16.5716   17.9985 N.3   217  UNL217     -0.3437
    866 H           4.0040   17.0759   18.5589 H     217  UNL217      0.1146
    867 H           5.2766   17.2831   17.5655 H     217  UNL217      0.1146
    868 H           5.2870   16.0798   18.6613 H     217  UNL217      0.1146
    869 N           4.9881   16.7990   20.9930 N.3   218  UNL218     -0.3437
    870 H           4.2695   17.3752   21.4288 H     218  UNL218      0.1146
    871 H           5.5192   17.4228   20.3871 H     218  UNL218      0.1146
    872 H           5.6231   16.5274   21.7422 H     218  UNL218      0.1146
    873 N           4.7635   17.1329   24.0087 N.3   219  UNL219     -0.3437
    874 H           3.9919   17.2288   24.6674 H     219  UNL219      0.1146
    875 H           5.6135   17.2982   24.5458 H     219  UNL219      0.1146
    876 H           4.7857   16.1493   23.7434 H     219  UNL219      0.1146
    877 N           4.8139   15.3888   26.4666 N.3   220  UNL220     -0.3437
    878 H           4.4490   16.3342   26.5740 H     220  UNL220      0.1146
    879 H           5.4969   15.4355   25.7117 H     220  UNL220      0.1146
    880 H           5.3452   15.1948   27.3142 H     220  UNL220      0.1146
    881 N           5.3178   16.0910   30.2492 N.3   221  UNL221     -0.3437
    882 H           6.0952   16.6870   30.5301 H     221  UNL221      0.1146
    883 H           4.5923   16.7188   29.9059 H     221  UNL221      0.1146
    884 H           5.6438   15.5681   29.4376 H     221  UNL221      0.1146
    885 N           5.2125   13.8859   33.1068 N.3   222  UNL222     -0.3437
    886 H           4.8459   14.4237   33.8908 H     222  UNL222      0.1146
    887 H           4.4938   13.9162   32.3849 H     222  UNL222      0.1146
    888 H           5.9992   14.4212   32.7424 H     222  UNL222      0.1146
    889 N           5.5583   19.7268    1.0096 N.3   223  UNL223     -0.3437
    890 H           4.7054   19.3167    0.6318 H     223  UNL223      0.1146
    891 H           6.1378   18.9437    1.3088 H     223  UNL223      0.1146
    892 H           6.0423   20.1477    0.2177 H     223  UNL223      0.1146
    893 N           4.4449   19.6735    3.6756 N.3   224  UNL224     -0.3437
    894 H           3.9763   20.2876    4.3402 H     224  UNL224      0.1146
    895 H           5.4421   19.8559    3.7795 H     224  UNL224      0.1146
    896 H           4.2960   18.7248    4.0164 H     224  UNL224      0.1146
    897 N           5.5081   18.7476    6.4472 N.3   225  UNL225     -0.3437
    898 H           5.2998   18.0187    5.7662 H     225  UNL225      0.1146
    899 H           6.2913   18.4008    6.9992 H     225  UNL225      0.1146
    900 H           5.8689   19.5366    5.9127 H     225  UNL225      0.1146
    901 N           4.6247   18.4276    9.3748 N.3   226  UNL226     -0.3437
    902 H           4.5176   19.2918    8.8455 H     226  UNL226      0.1146
    903 H           5.3405   17.8882    8.8901 H     226  UNL226      0.1146
    904 H           5.0323   18.6950   10.2696 H     226  UNL226      0.1146
    905 N           5.0858   20.0134   12.3802 N.3   227  UNL227     -0.3437
    906 H           5.2629   19.0119   12.4437 H     227  UNL227      0.1146
    907 H           5.8760   20.4066   11.8709 H     227  UNL227      0.1146
    908 H           4.2776   20.1176   11.7685 H     227  UNL227      0.1146
    909 N           4.6728   18.4322   14.8418 N.3   228  UNL228     -0.3437
    910 H           4.4223   17.8935   15.6697 H     228  UNL228      0.1146
    911 H           5.2243   19.2211   15.1762 H     228  UNL228      0.1146
    912 H           5.3145   17.8466   14.3092 H     228  UNL228      0.1146
    913 N           5.2634   19.8458   17.8929 N.3   229  UNL229     -0.3437
    914 H           4.6142   19.3693   17.2685 H     229  UNL229      0.1146
    915 H           5.5899   19.1394   18.5508 H     229  UNL229      0.1146
    916 H           6.0710   20.0932   17.3228 H     229  UNL229      0.1146
    917 N           4.9737   19.8848   20.9913 N.3   230  UNL230     -0.3437
    918 H           4.3879   19.3102   20.3871 H     230  UNL230      0.1146
    919 H           5.4090   19.2435   21.6529 H     230  UNL230      0.1146
    920 H           5.7276   20.2344   20.4017 H     230  UNL230      0.1146
    921 N           4.7286   20.4713   24.1112 N.3   231  UNL231     -0.3437
    922 H           3.9929   20.2574   24.7830 H     231  UNL231      0.1146
    923 H           5.4897   20.8828   24.6496 H     231  UNL231      0.1146
    924 H           5.0745   19.5726   23.7778 H     231  UNL231      0.1146
    925 N           5.4815   18.8302   26.4940 N.3   232  UNL232     -0.3437
    926 H           5.7953   19.7973   26.4256 H     232  UNL232      0.1146
    927 H           6.3177   18.2560   26.3969 H     232  UNL232      0.1146
    928 H           5.1647   18.7049   27.4544 H     232  UNL232      0.1146
    929 N           4.7417   19.3686   29.9968 N.3   233  UNL233     -0.3437
    930 H           4.1844   18.7901   29.3698 H     233  UNL233      0.1146
    931 H           5.2878   18.7221   30.5644 H     233  UNL233      0.1146
    932 H           5.4119   19.8583   29.4056 H     233  UNL233      0.1146
    933 N           5.1115   16.9971   33.3593 N.3   234  UNL234     -0.3437
    934 H           5.3836   17.4338   32.4797 H     234  UNL234      0.1146
    935 H           5.9780   16.8244   33.8670 H     234  UNL234      0.1146
    936 H           4.6150   17.7137   33.8868 H     234  UNL234      0.1146
    937 N           4.9893   23.4038    0.3440 N.3   235  UNL235     -0.3437
    938 H           5.0186   22.4358    0.6611 H     235  UNL235      0.1146
    939 H           5.7728   23.8717    0.7975 H     235  UNL235      0.1146
    940 H           5.2131   23.3807   -0.6499 H     235  UNL235      0.1146
    941 N           4.7323   22.9281    3.6468 N.3   236  UNL236     -0.3437
    942 H           4.8331   23.5060    4.4800 H     236  UNL236      0.1146
    943 H           5.3916   23.3007    2.9650 H     236  UNL236      0.1146
    944 H           5.0824   22.0055    3.9008 H     236  UNL236      0.1146
    945 N           5.0601   21.7958    6.6409 N.3   237  UNL237     -0.3437
    946 H           4.6000   22.5446    7.1566 H     237  UNL237      0.1146
    947 H           5.7038   22.2528    5.9965 H     237  UNL237      0.1146
    948 H           5.6421   21.3048    7.3180 H     237  UNL237      0.1146
    949 N           4.7127   21.7115    9.6743 N.3   238  UNL238     -0.3437
    950 H           4.0467   21.4158    8.9621 H     238  UNL238      0.1146
    951 H           5.2728   20.8891    9.8939 H     238  UNL238      0.1146
    952 H           5.3437   22.3662    9.2142 H     238  UNL238      0.1146
    953 N           4.8358   23.1451   12.3104 N.3   239  UNL239     -0.3437
    954 H           5.2286   23.2752   13.2416 H     239  UNL239      0.1146
    955 H           5.6203   23.2090   11.6632 H     239  UNL239      0.1146
    956 H           4.5185   22.1775   12.2721 H     239  UNL239      0.1146
    957 N           4.2502   21.5817   14.9958 N.3   240  UNL240     -0.3437
    958 H           4.1753   20.8824   15.7332 H     240  UNL240      0.1146
    959 H           4.2168   22.4869   15.4627 H     240  UNL240      0.1146
    960 H           5.1934   21.4941   14.6203 H     240  UNL240      0.1146
    961 N           5.1049   22.7959   17.9057 N.3   241  UNL241     -0.3437
    962 H           4.6105   23.4648   18.4944 H     241  UNL241      0.1146
    963 H           5.4313   23.3218   17.0961 H     241  UNL241      0.1146
    964 H           5.9413   22.5303   18.4237 H     241  UNL241      0.1146
    965 N           5.0637   22.7289   20.9145 N.3   242  UNL242     -0.3437
    966 H           4.6070   22.1206   20.2364 H     242  UNL242      0.1146
    967 H           5.1620   22.1770   21.7655 H     242  UNL242      0.1146
    968 H           6.0095   22.8780   20.5658 H     242  UNL242      0.1146
    969 N           5.1464   23.5033   24.4644 N.3   243  UNL243     -0.3437
    970 H           5.6806   22.9358   25.1208 H     243  UNL243      0.1146
    971 H           5.5945   23.3804   23.5574 H     243  UNL243      0.1146
    972 H           4.2323   23.0594   24.3885 H     243  UNL243      0.1146
    973 N           4.7046   22.1164   28.1917 N.3   244  UNL244     -0.3437
    974 H           4.3725   21.1816   27.9587 H     244  UNL244      0.1146
    975 H           5.5302   21.9841   28.7742 H     244  UNL244      0.1146
    976 H           5.0389   22.5215   27.3185 H     244  UNL244      0.1146
    977 N           4.8955   22.9946   31.1079 N.3   245  UNL245     -0.3437
    978 H           5.1865   23.0918   32.0796 H     245  UNL245      0.1146
    979 H           5.6932   23.2867   30.5451 H     245  UNL245      0.1146
    980 H           4.7885   21.9943   30.9455 H     245  UNL245      0.1146
    981 N           5.0617   20.6840   33.1792 N.3   246  UNL246     -0.3437
    982 H           5.5413   20.4444   32.3126 H     246  UNL246      0.1146
    983 H           4.5124   19.8639   33.4323 H     246  UNL246      0.1146
    984 H           5.7883   20.7652   33.8891 H     246  UNL246      0.1146
    985 N           5.0171   25.4368   20.7270 N.3   247  UNL247     -0.3437
    986 H           5.6627   24.9385   20.1160 H     247  UNL247      0.1146
    987 H           4.1197   24.9633   20.6333 H     247  UNL247      0.1146
    988 H           5.3331   25.2540   21.6784 H     247  UNL247      0.1146
    989 N           3.1275   25.0007   22.9641 N.3   248  UNL248     -0.3437
    990 H           3.6571   24.2080   22.6040 H     248  UNL248      0.1146
    991 H           2.2740   25.0437   22.4090 H     248  UNL248      0.1146
    992 H           2.8374   24.7402   23.9055 H     248  UNL248      0.1146
    993 N           8.1159    0.1960    0.4936 N.3   249  UNL249     -0.3437
    994 H           7.6926    1.0652    0.8157 H     249  UNL249      0.1146
    995 H           8.8990    0.4676   -0.0991 H     249  UNL249      0.1146
    996 H           8.5259   -0.2393    1.3187 H     249  UNL249      0.1146
    997 N           7.2604    0.6969    3.5224 N.3   250  UNL250     -0.3437
    998 H           6.5741    0.6510    4.2742 H     250  UNL250      0.1146
    999 H           7.8793    1.4726    3.7541 H     250  UNL250      0.1146
   1000 H           7.8250   -0.1473    3.6056 H     250  UNL250      0.1146
   1001 N           8.3749    0.0753    6.2097 N.3   251  UNL251     -0.3437
   1002 H           7.7177    0.7981    6.4997 H     251  UNL251      0.1146
   1003 H           8.8960    0.4672    5.4267 H     251  UNL251      0.1146
   1004 H           9.0435   -0.0190    6.9729 H     251  UNL251      0.1146
   1005 N           7.3628    0.0985    9.0266 N.3   252  UNL252     -0.3437
   1006 H           7.2650   -0.6561    9.7045 H     252  UNL252      0.1146
   1007 H           6.8853    0.9028    9.4309 H     252  UNL252      0.1146
   1008 H           8.3533    0.3374    9.0132 H     252  UNL252      0.1146
   1009 N           9.1697    0.3469   12.0261 N.3   253  UNL253     -0.3437
   1010 H           8.8171   -0.0272   11.1463 H     253  UNL253      0.1146
   1011 H           9.5287   -0.4519   12.5472 H     253  UNL253      0.1146
   1012 H           9.9820    0.9131   11.7852 H     253  UNL253      0.1146
   1013 N           7.6951    0.4448   14.8374 N.3   254  UNL254     -0.3437
   1014 H           8.1649    1.1745   14.3034 H     254  UNL254      0.1146
   1015 H           8.3957    0.0668   15.4735 H     254  UNL254      0.1146
   1016 H           7.0116    0.9217   15.4237 H     254  UNL254      0.1146
   1017 N           7.8620    0.9151   17.9433 N.3   255  UNL255     -0.3437
   1018 H           7.4074    0.1573   17.4358 H     255  UNL255      0.1146
   1019 H           8.8081    0.5926   18.1413 H     255  UNL255      0.1146
   1020 H           7.9598    1.6801   17.2773 H     255  UNL255      0.1146
   1021 N           8.0329    0.4387   20.7212 N.3   256  UNL256     -0.3437
   1022 H           7.4468   -0.3155   21.0763 H     256  UNL256      0.1146
   1023 H           8.4256    0.8991   21.5411 H     256  UNL256      0.1146
   1024 H           8.8160   -0.0120   20.2502 H     256  UNL256      0.1146
   1025 N           8.2465   -0.5808   23.7324 N.3   257  UNL257     -0.3437
   1026 H           9.0191   -0.6049   23.0684 H     257  UNL257      0.1146
   1027 H           8.5489    0.0261   24.4931 H     257  UNL257      0.1146
   1028 H           7.4885   -0.0869   23.2635 H     257  UNL257      0.1146
   1029 N           6.7406    0.4888   26.4677 N.3   258  UNL258     -0.3437
   1030 H           6.2034    1.2060   25.9824 H     258  UNL258      0.1146
   1031 H           6.9995    0.8921   27.3669 H     258  UNL258      0.1146
   1032 H           6.0835   -0.2618   26.6754 H     258  UNL258      0.1146
   1033 N           7.9366   -0.1220   29.6784 N.3   259  UNL259     -0.3437
   1034 H           7.3726    0.3439   30.3877 H     259  UNL259      0.1146
   1035 H           8.4828    0.6109   29.2278 H     259  UNL259      0.1146
   1036 H           8.6058   -0.6990   30.1859 H     259  UNL259      0.1146
   1037 N           8.1382    0.6030   32.8821 N.3   260  UNL260     -0.3437
   1038 H           7.8109    1.3633   32.2878 H     260  UNL260      0.1146
   1039 H           7.3061    0.0821   33.1556 H     260  UNL260      0.1146
   1040 H           8.6715   -0.0182   32.2753 H     260  UNL260      0.1146
   1041 N           7.6568    3.7040    0.7460 N.3   261  UNL261     -0.3437
   1042 H           7.2495    3.1912    1.5268 H     261  UNL261      0.1146
   1043 H           8.1960    4.4634    1.1594 H     261  UNL261      0.1146
   1044 H           8.3371    3.0753    0.3214 H     261  UNL261      0.1146
   1045 N           8.3716    3.9727    3.7768 N.3   262  UNL262     -0.3437
   1046 H           7.6298    4.4682    3.2843 H     262  UNL262      0.1146
   1047 H           8.9457    3.5380    3.0558 H     262  UNL262      0.1146
   1048 H           8.9540    4.6916    4.2039 H     262  UNL262      0.1146
   1049 N           7.7876    4.2955    6.6233 N.3   263  UNL263     -0.3437
   1050 H           7.6091    4.5300    7.5988 H     263  UNL263      0.1146
   1051 H           8.6723    4.7412    6.3846 H     263  UNL263      0.1146
   1052 H           7.9642    3.2921    6.6035 H     263  UNL263      0.1146
   1053 N           8.4666    2.9528    9.5041 N.3   264  UNL264     -0.3437
   1054 H           7.8978    2.6623    8.7102 H     264  UNL264      0.1146
   1055 H           8.5992    2.1190   10.0747 H     264  UNL264      0.1146
   1056 H           9.3839    3.1815    9.1237 H     264  UNL264      0.1146
   1057 N           8.4160    3.6787   12.4347 N.3   265  UNL265     -0.3437
   1058 H           9.0261    4.1493   11.7679 H     265  UNL265      0.1146
   1059 H           7.8077    3.0762   11.8821 H     265  UNL265      0.1146
   1060 H           9.0159    3.0547   12.9724 H     265  UNL265      0.1146
   1061 N           7.9008    3.6098   15.3115 N.3   266  UNL266     -0.3437
   1062 H           7.5624    4.1101   16.1322 H     266  UNL266      0.1146
   1063 H           8.5121    4.2594   14.8188 H     266  UNL266      0.1146
   1064 H           8.5045    2.8683   15.6637 H     266  UNL266      0.1146
   1065 N           6.2690    3.3821   18.2376 N.3   267  UNL267     -0.3437
   1066 H           5.8834    4.3127   18.3919 H     267  UNL267      0.1146
   1067 H           5.9846    3.1126   17.2969 H     267  UNL267      0.1146
   1068 H           7.2806    3.4996   18.2023 H     267  UNL267      0.1146
   1069 N           7.8857    3.3378   20.6129 N.3   268  UNL268     -0.3437
   1070 H           7.4487    3.5913   21.4978 H     268  UNL268      0.1146
   1071 H           8.0677    4.2154   20.1279 H     268  UNL268      0.1146
   1072 H           8.7991    2.9537   20.8506 H     268  UNL268      0.1146
   1073 N           8.2325    2.3918   23.7223 N.3   269  UNL269     -0.3437
   1074 H           7.7727    3.2735   23.9444 H     269  UNL269      0.1146
   1075 H           8.8210    2.5783   22.9116 H     269  UNL269      0.1146
   1076 H           8.8700    2.2050   24.4950 H     269  UNL269      0.1146
   1077 N           7.8460    3.1978   26.5843 N.3   270  UNL270     -0.3437
   1078 H           7.2813    3.8479   27.1292 H     270  UNL270      0.1146
   1079 H           8.4268    3.7725   25.9754 H     270  UNL270      0.1146
   1080 H           8.4833    2.7566   27.2458 H     270  UNL270      0.1146
   1081 N           8.0085    3.6680   29.6074 N.3   271  UNL271     -0.3437
   1082 H           7.0368    3.7576   29.3139 H     271  UNL271      0.1146
   1083 H           8.2554    2.6894   29.4666 H     271  UNL271      0.1146
   1084 H           8.5564    4.1961   28.9297 H     271  UNL271      0.1146
   1085 N           8.2064    3.7017   33.5053 N.3   272  UNL272     -0.3437
   1086 H           9.1384    3.8489   33.8901 H     272  UNL272      0.1146
   1087 H           8.3365    3.5422   32.5073 H     272  UNL272      0.1146
   1088 H           7.8799    2.8168   33.8909 H     272  UNL272      0.1146
   1089 N           8.0880    7.4525    0.8220 N.3   273  UNL273     -0.3437
   1090 H           7.7885    6.5177    1.0957 H     273  UNL273      0.1146
   1091 H           8.8908    7.6735    1.4095 H     273  UNL273      0.1146
   1092 H           8.4497    7.3650   -0.1266 H     273  UNL273      0.1146
   1093 N           7.6604    6.9861    3.8470 N.3   274  UNL274     -0.3437
   1094 H           7.5535    6.3437    4.6308 H     274  UNL274      0.1146
   1095 H           8.0444    7.8451    4.2382 H     274  UNL274      0.1146
   1096 H           8.3940    6.5926    3.2594 H     274  UNL274      0.1146
   1097 N           8.3156    7.2736    7.3363 N.3   275  UNL275     -0.3437
   1098 H           9.1265    6.7859    7.7144 H     275  UNL275      0.1146
   1099 H           8.4878    7.3718    6.3368 H     275  UNL275      0.1146
   1100 H           7.5328    6.6271    7.4242 H     275  UNL275      0.1146
   1101 N           8.7025    5.8911   10.0813 N.3   276  UNL276     -0.3437
   1102 H           8.1617    5.5756    9.2773 H     276  UNL276      0.1146
   1103 H           9.5865    5.3858   10.0410 H     276  UNL276      0.1146
   1104 H           8.9290    6.8682    9.9014 H     276  UNL276      0.1146
   1105 N           7.8167    6.3888   12.7917 N.3   277  UNL277     -0.3437
   1106 H           7.0755    6.8349   13.3302 H     277  UNL277      0.1146
   1107 H           8.4613    7.1335   12.5303 H     277  UNL277      0.1146
   1108 H           8.3234    5.7966   13.4483 H     277  UNL277      0.1146
   1109 N           8.8244    7.4015   15.4387 N.3   278  UNL278     -0.3437
   1110 H           8.0129    7.9604   15.6985 H     278  UNL278      0.1146
   1111 H           9.1762    7.8036   14.5709 H     278  UNL278      0.1146
   1112 H           9.5343    7.5921   16.1445 H     278  UNL278      0.1146
   1113 N           7.9183    5.9863   17.9468 N.3   279  UNL279     -0.3437
   1114 H           7.2523    6.2010   17.2060 H     279  UNL279      0.1146
   1115 H           8.8278    5.9105   17.4935 H     279  UNL279      0.1146
   1116 H           7.9651    6.8190   18.5324 H     279  UNL279      0.1146
   1117 N           7.8473    6.3456   21.6700 N.3   280  UNL280     -0.3437
   1118 H           8.0443    6.5394   20.6891 H     280  UNL280      0.1146
   1119 H           8.3789    5.5081   21.9031 H     280  UNL280      0.1146
   1120 H           8.2747    7.1054   22.1977 H     280  UNL280      0.1146
   1121 N           7.9059    5.7910   24.5037 N.3   281  UNL281     -0.3437
   1122 H           7.1135    5.3717   24.0194 H     281  UNL281      0.1146
   1123 H           8.7379    5.4738   24.0081 H     281  UNL281      0.1146
   1124 H           7.8418    6.7934   24.3317 H     281  UNL281      0.1146
   1125 N           8.1869    6.4399   27.5655 N.3   282  UNL282     -0.3437
   1126 H           8.6296    5.5519   27.3335 H     282  UNL282      0.1146
   1127 H           8.8730    6.9625   28.1081 H     282  UNL282      0.1146
   1128 H           8.0846    6.9414   26.6844 H     282  UNL282      0.1146
   1129 N           7.9308    6.6102   30.5734 N.3   283  UNL283     -0.3437
   1130 H           7.3434    6.1653   29.8696 H     283  UNL283      0.1146
   1131 H           8.5807    5.8926   30.8913 H     283  UNL283      0.1146
   1132 H           8.4938    7.2982   30.0753 H     283  UNL283      0.1146
   1133 N           7.7895    6.8797   33.2924 N.3   284  UNL284     -0.3437
   1134 H           7.1479    6.3610   33.8904 H     284  UNL284      0.1146
   1135 H           8.2292    7.5775   33.8908 H     284  UNL284      0.1146
   1136 H           8.5267    6.2244   33.0365 H     284  UNL284      0.1146
   1137 N           8.1778   10.5385    0.8254 N.3   285  UNL285     -0.3437
   1138 H           8.1097    9.9109    1.6252 H     285  UNL285      0.1146
   1139 H           8.8493   11.2581    1.0894 H     285  UNL285      0.1146
   1140 H           8.6209    9.9999    0.0826 H     285  UNL285      0.1146
   1141 N           7.2136   10.5451    4.0314 N.3   286  UNL286     -0.3437
   1142 H           7.6147    9.6560    3.7365 H     286  UNL286      0.1146
   1143 H           7.9282   11.0022    4.5959 H     286  UNL286      0.1146
   1144 H           7.1223   11.1063    3.1857 H     286  UNL286      0.1146
   1145 N           7.7599    9.9686    6.9867 N.3   287  UNL287     -0.3437
   1146 H           7.0348   10.5234    6.5341 H     287  UNL287      0.1146
   1147 H           8.3358    9.5922    6.2350 H     287  UNL287      0.1146
   1148 H           8.3497   10.6320    7.4871 H     287  UNL287      0.1146
   1149 N           8.5936    9.2787    9.8491 N.3   288  UNL288     -0.3437
   1150 H           7.8100    9.8602    9.5554 H     288  UNL288      0.1146
   1151 H           9.2313    9.2449    9.0550 H     288  UNL288      0.1146
   1152 H           9.0772    9.8051   10.5753 H     288  UNL288      0.1146
   1153 N           7.5307    9.5791   12.7216 N.3   289  UNL289     -0.3437
   1154 H           7.3318   10.1370   11.8924 H     289  UNL289      0.1146
   1155 H           6.9665    8.7350   12.6342 H     289  UNL289      0.1146
   1156 H           8.5004    9.2791   12.6324 H     289  UNL289      0.1146
   1157 N           8.1427   10.5369   15.6052 N.3   290  UNL290     -0.3437
   1158 H           7.3801    9.8965   15.3893 H     290  UNL290      0.1146
   1159 H           8.9735    9.9573   15.7160 H     290  UNL290      0.1146
   1160 H           8.2948   11.0872   14.7611 H     290  UNL290      0.1146
   1161 N           7.9428    9.3143   18.2977 N.3   291  UNL291     -0.3437
   1162 H           7.2005    9.6980   17.7145 H     291  UNL291      0.1146
   1163 H           8.5381    8.7715   17.6736 H     291  UNL291      0.1146
   1164 H           8.5034   10.1102   18.5986 H     291  UNL291      0.1146
   1165 N           7.7720    9.8940   21.0729 N.3   292  UNL292     -0.3437
   1166 H           7.4638   10.3484   21.9314 H     292  UNL292      0.1146
   1167 H           8.3469   10.5785   20.5836 H     292  UNL292      0.1146
   1168 H           8.4055    9.1497   21.3609 H     292  UNL292      0.1146
   1169 N           8.8561    9.7541   23.9673 N.3   293  UNL293     -0.3437
   1170 H           8.0884   10.4230   24.0063 H     293  UNL293      0.1146
   1171 H           8.4285    8.8456   23.7936 H     293  UNL293      0.1146
   1172 H           9.3841    9.9813   23.1259 H     293  UNL293      0.1146
   1173 N           8.3417    9.4098   26.8955 N.3   294  UNL294     -0.3437
   1174 H           7.7993   10.0388   26.3051 H     294  UNL294      0.1146
   1175 H           8.9072    8.8472   26.2614 H     294  UNL294      0.1146
   1176 H           8.9963    9.9996   27.4072 H     294  UNL294      0.1146
   1177 N           7.7936    9.7539   30.2224 N.3   295  UNL295     -0.3437
   1178 H           7.1228    9.0180   30.0058 H     295  UNL295      0.1146
   1179 H           8.5746    9.2939   30.6880 H     295  UNL295      0.1146
   1180 H           8.1531   10.0790   29.3261 H     295  UNL295      0.1146
   1181 N           7.8785    9.9604   33.1467 N.3   296  UNL296     -0.3437
   1182 H           7.1998   10.1153   33.8908 H     296  UNL296      0.1146
   1183 H           8.7257    9.6268   33.6042 H     296  UNL296      0.1146
   1184 H           7.5248    9.1745   32.6030 H     296  UNL296      0.1146
   1185 N           7.6193   13.5880    0.8291 N.3   297  UNL297     -0.3437
   1186 H           7.7850   14.4139    1.4025 H     297  UNL297      0.1146
   1187 H           8.5246   13.3311    0.4383 H     297  UNL297      0.1146
   1188 H           7.3712   12.8416    1.4770 H     297  UNL297      0.1146
   1189 N           8.9633   13.7523    3.5859 N.3   298  UNL298     -0.3437
   1190 H           8.0045   14.0967    3.5668 H     298  UNL298      0.1146
   1191 H           9.4696   14.3659    4.2228 H     298  UNL298      0.1146
   1192 H           8.9260   12.8424    4.0430 H     298  UNL298      0.1146
   1193 N           7.9500   13.4344    6.4336 N.3   299  UNL299     -0.3437
   1194 H           7.1766   13.6578    7.0583 H     299  UNL299      0.1146
   1195 H           8.8005   13.5863    6.9739 H     299  UNL299      0.1146
   1196 H           7.8972   12.4301    6.2693 H     299  UNL299      0.1146
   1197 N           7.8380   12.4943    9.3453 N.3   300  UNL300     -0.3437
   1198 H           7.1805   12.8590   10.0331 H     300  UNL300      0.1146
   1199 H           8.4389   13.2764    9.0889 H     300  UNL300      0.1146
   1200 H           8.4325   11.8359    9.8467 H     300  UNL300      0.1146
   1201 N           8.0397   12.3415   12.4182 N.3   301  UNL301     -0.3437
   1202 H           7.3528   12.9371   12.8785 H     301  UNL301      0.1146
   1203 H           8.5207   12.9362   11.7448 H     301  UNL301      0.1146
   1204 H           8.7304   12.1075   13.1298 H     301  UNL301      0.1146
   1205 N           8.3022   13.6270   15.2583 N.3   302  UNL302     -0.3437
   1206 H           7.4631   13.0808   15.0691 H     302  UNL302      0.1146
   1207 H           8.9940   12.9665   15.6099 H     302  UNL302      0.1146
   1208 H           8.6461   13.9371   14.3506 H     302  UNL302      0.1146
   1209 N           7.6504   12.4736   17.9109 N.3   303  UNL303     -0.3437
   1210 H           7.1255   11.8153   18.4850 H     303  UNL303      0.1146
   1211 H           7.7658   13.3117   18.4788 H     303  UNL303      0.1146
   1212 H           8.5822   12.0745   17.8067 H     303  UNL303      0.1146
   1213 N           8.1199   13.1192   21.0953 N.3   304  UNL304     -0.3437
   1214 H           7.4586   12.5854   20.5331 H     304  UNL304      0.1146
   1215 H           8.7021   12.4320   21.5720 H     304  UNL304      0.1146
   1216 H           8.7316   13.5947   20.4335 H     304  UNL304      0.1146
   1217 N           7.8154   13.0301   23.9399 N.3   305  UNL305     -0.3437
   1218 H           7.4263   12.3569   23.2813 H     305  UNL305      0.1146
   1219 H           8.4240   12.4973   24.5597 H     305  UNL305      0.1146
   1220 H           8.4290   13.6340   23.3948 H     305  UNL305      0.1146
   1221 N           8.3650   12.4812   27.2076 N.3   306  UNL306     -0.3437
   1222 H           8.9470   13.1067   27.7630 H     306  UNL306      0.1146
   1223 H           7.7161   12.0463   27.8619 H     306  UNL306      0.1146
   1224 H           7.7998   13.0814   26.6087 H     306  UNL306      0.1146
   1225 N           8.5276   12.4261   30.2961 N.3   307  UNL307     -0.3437
   1226 H           8.0268   13.1331   29.7598 H     307  UNL307      0.1146
   1227 H           9.1589   11.9700   29.6390 H     307  UNL307      0.1146
   1228 H           9.1216   12.9365   30.9480 H     307  UNL307      0.1146
   1229 N           7.9731   12.7109   33.8805 N.3   308  UNL308     -0.3437
   1230 H           7.7325   13.7010   33.8898 H     308  UNL308      0.1146
   1231 H           7.0876   12.2067   33.8724 H     308  UNL308      0.1146
   1232 H           8.4045   12.5352   32.9742 H     308  UNL308      0.1146
   1233 N           8.5479   16.8022    1.5259 N.3   309  UNL309     -0.3437
   1234 H           7.7195   16.5249    2.0506 H     309  UNL309      0.1146
   1235 H           8.2121   17.3753    0.7531 H     309  UNL309      0.1146
   1236 H           9.0693   17.4305    2.1356 H     309  UNL309      0.1146
   1237 N           7.5064   16.4238    4.4322 N.3   310  UNL310     -0.3437
   1238 H           8.4053   16.7921    4.1243 H     310  UNL310      0.1146
   1239 H           7.7179   15.6013    4.9953 H     310  UNL310      0.1146
   1240 H           7.1257   17.1151    5.0769 H     310  UNL310      0.1146
   1241 N           7.4969   16.1280    7.5121 N.3   311  UNL311     -0.3437
   1242 H           6.9155   16.4567    8.2817 H     311  UNL311      0.1146
   1243 H           7.9988   16.9462    7.1699 H     311  UNL311      0.1146
   1244 H           8.2007   15.5217    7.9309 H     311  UNL311      0.1146
   1245 N           8.1254   15.5547   10.3946 N.3   312  UNL312     -0.3437
   1246 H           7.6360   16.2045   11.0083 H     312  UNL312      0.1146
   1247 H           8.5799   14.8785   11.0066 H     312  UNL312      0.1146
   1248 H           7.4012   15.0398    9.8959 H     312  UNL312      0.1146
   1249 N           7.6527   16.0922   13.4356 N.3   313  UNL313     -0.3437
   1250 H           7.6820   15.1765   12.9894 H     313  UNL313      0.1146
   1251 H           6.7027   16.4374   13.3061 H     313  UNL313      0.1146
   1252 H           7.7554   15.9211   14.4348 H     313  UNL313      0.1146
   1253 N           7.7549   15.8202   17.7270 N.3   314  UNL314     -0.3437
   1254 H           8.2760   16.6236   18.0753 H     314  UNL314      0.1146
   1255 H           8.4529   15.1475   17.4127 H     314  UNL314      0.1146
   1256 H           7.3078   15.4011   18.5412 H     314  UNL314      0.1146
   1257 N           8.0705   16.1345   20.8067 N.3   315  UNL315     -0.3437
   1258 H           7.6655   16.9455   21.2721 H     315  UNL315      0.1146
   1259 H           8.8028   16.4968   20.1977 H     315  UNL315      0.1146
   1260 H           8.5473   15.6026   21.5334 H     315  UNL315      0.1146
   1261 N           7.9338   16.5310   23.8804 N.3   316  UNL316     -0.3437
   1262 H           7.1531   16.2341   23.2968 H     316  UNL316      0.1146
   1263 H           8.3821   15.6759   24.2062 H     316  UNL316      0.1146
   1264 H           8.6011   16.9759   23.2518 H     316  UNL316      0.1146
   1265 N           8.2135   15.5961   26.7643 N.3   317  UNL317     -0.3437
   1266 H           7.5432   15.1669   27.4006 H     317  UNL317      0.1146
   1267 H           8.4813   16.4808   27.1933 H     317  UNL317      0.1146
   1268 H           9.0446   15.0072   26.7929 H     317  UNL317      0.1146
   1269 N           9.0343   15.4699   29.5704 N.3   318  UNL318     -0.3437
   1270 H           8.1365   15.8574   29.8569 H     318  UNL318      0.1146
   1271 H           9.6930   16.2473   29.5838 H     318  UNL318      0.1146
   1272 H           9.3228   14.8444   30.3213 H     318  UNL318      0.1146
   1273 N           8.2250   15.7145   32.4885 N.3   319  UNL319     -0.3437
   1274 H           8.1391   14.7490   32.1740 H     319  UNL319      0.1146
   1275 H           7.3359   16.1615   32.2689 H     319  UNL319      0.1146
   1276 H           8.2759   15.6751   33.5055 H     319  UNL319      0.1146
   1277 N           9.0987   19.7602    0.2530 N.3   320  UNL320     -0.3437
   1278 H           8.1147   19.5071    0.3309 H     320  UNL320      0.1146
   1279 H           9.6185   19.0095    0.7053 H     320  UNL320      0.1146
   1280 H           9.3261   19.7014   -0.7386 H     320  UNL320      0.1146
   1281 N           7.9916   19.4689    3.1292 N.3   321  UNL321     -0.3437
   1282 H           7.3357   18.6890    3.1261 H     321  UNL321      0.1146
   1283 H           7.6232   20.1431    3.7986 H     321  UNL321      0.1146
   1284 H           8.8532   19.1096    3.5378 H     321  UNL321      0.1146
   1285 N           8.4862   19.1711    6.1070 N.3   322  UNL322     -0.3437
   1286 H           8.8320   18.3116    5.6826 H     322  UNL322      0.1146
   1287 H           8.9012   19.2119    7.0368 H     322  UNL322      0.1146
   1288 H           8.9064   19.9342    5.5782 H     322  UNL322      0.1146
   1289 N           7.8070   18.5171    9.4339 N.3   323  UNL323     -0.3437
   1290 H           7.1370   18.0859   10.0691 H     323  UNL323      0.1146
   1291 H           8.3555   19.1628   10.0002 H     323  UNL323      0.1146
   1292 H           8.4471   17.7750    9.1547 H     323  UNL323      0.1146
   1293 N           8.1420   18.5719   12.5291 N.3   324  UNL324     -0.3437
   1294 H           7.4354   19.0862   12.0051 H     324  UNL324      0.1146
   1295 H           8.6216   17.9825   11.8502 H     324  UNL324      0.1146
   1296 H           8.8256   19.2640   12.8326 H     324  UNL324      0.1146
   1297 N           7.8440   19.1648   15.5492 N.3   325  UNL325     -0.3437
   1298 H           7.2989   18.5142   14.9853 H     325  UNL325      0.1146
   1299 H           8.5558   18.6042   16.0155 H     325  UNL325      0.1146
   1300 H           8.3428   19.7593   14.8888 H     325  UNL325      0.1146
   1301 N           8.2282   19.2791   18.5563 N.3   326  UNL326     -0.3437
   1302 H           7.6646   18.5721   18.0864 H     326  UNL326      0.1146
   1303 H           8.9678   18.7724   19.0407 H     326  UNL326      0.1146
   1304 H           8.6882   19.8085   17.8170 H     326  UNL326      0.1146
   1305 N           8.3037   19.4617   21.5919 N.3   327  UNL327     -0.3437
   1306 H           7.4867   19.1100   21.0948 H     327  UNL327      0.1146
   1307 H           8.8418   18.6404   21.8645 H     327  UNL327      0.1146
   1308 H           8.8674   19.9487   20.8966 H     327  UNL327      0.1146
   1309 N           7.6510   19.5513   24.5499 N.3   328  UNL328     -0.3437
   1310 H           7.1284   19.0016   23.8694 H     328  UNL328      0.1146
   1311 H           8.3364   18.9164   24.9569 H     328  UNL328      0.1146
   1312 H           8.1843   20.2321   24.0109 H     328  UNL328      0.1146
   1313 N           7.8154   19.6020   28.1207 N.3   329  UNL329     -0.3437
   1314 H           7.0822   18.9237   28.3222 H     329  UNL329      0.1146
   1315 H           8.6557   19.2516   28.5785 H     329  UNL329      0.1146
   1316 H           7.9925   19.5351   27.1194 H     329  UNL329      0.1146
   1317 N           8.1822   18.3141   30.9752 N.3   330  UNL330     -0.3437
   1318 H           7.4270   18.3053   30.2912 H     330  UNL330      0.1146
   1319 H           9.0404   18.1584   30.4481 H     330  UNL330      0.1146
   1320 H           8.2357   19.2707   31.3223 H     330  UNL330      0.1146
   1321 N           7.8156   18.5972   33.8909 N.3   331  UNL331     -0.3437
   1322 H           7.2029   18.4628   33.0878 H     331  UNL331      0.1146
   1323 H           8.4566   17.8050   33.8907 H     331  UNL331      0.1146
   1324 H           8.3821   19.4169   33.6779 H     331  UNL331      0.1146
   1325 N           7.8537   22.3081    1.1184 N.3   332  UNL332     -0.3437
   1326 H           8.5900   22.6066    0.4803 H     332  UNL332      0.1146
   1327 H           7.1405   21.8686    0.5383 H     332  UNL332      0.1146
   1328 H           8.2566   21.5610    1.6822 H     332  UNL332      0.1146
   1329 N           7.7975   22.7627    3.8794 N.3   333  UNL333     -0.3437
   1330 H           8.0926   23.4364    4.5847 H     333  UNL333      0.1146
   1331 H           8.6251   22.2133    3.6522 H     333  UNL333      0.1146
   1332 H           7.1577   22.1247    4.3507 H     333  UNL333      0.1146
   1333 N           8.1449   22.1722    6.6602 N.3   334  UNL334     -0.3437
   1334 H           7.4322   22.5937    7.2542 H     334  UNL334      0.1146
   1335 H           8.8784   22.8727    6.5614 H     334  UNL334      0.1146
   1336 H           8.5525   21.4140    7.2055 H     334  UNL334      0.1146
   1337 N           7.8208   21.5533    9.5922 N.3   335  UNL335     -0.3437
   1338 H           7.1712   21.1803    8.9013 H     335  UNL335      0.1146
   1339 H           8.7259   21.1356    9.3808 H     335  UNL335      0.1146
   1340 H           7.9140   22.5462    9.3828 H     335  UNL335      0.1146
   1341 N           7.8012   21.6535   12.4821 N.3   336  UNL336     -0.3437
   1342 H           7.1863   22.3725   12.8607 H     336  UNL336      0.1146
   1343 H           8.5018   22.1456   11.9294 H     336  UNL336      0.1146
   1344 H           8.2983   21.2604   13.2800 H     336  UNL336      0.1146
   1345 N           8.0309   22.8110   15.2880 N.3   337  UNL337     -0.3437
   1346 H           7.2793   23.0072   15.9476 H     337  UNL337      0.1146
   1347 H           8.8419   23.3283   15.6243 H     337  UNL337      0.1146
   1348 H           8.2580   21.8247   15.4062 H     337  UNL337      0.1146
   1349 N           8.7074   22.2522   18.0347 N.3   338  UNL338     -0.3437
   1350 H           8.0021   22.8175   18.5050 H     338  UNL338      0.1146
   1351 H           9.4786   22.8838   17.8234 H     338  UNL338      0.1146
   1352 H           9.0605   21.6028   18.7362 H     338  UNL338      0.1146
   1353 N           8.4946   22.4802   21.1126 N.3   339  UNL339     -0.3437
   1354 H           7.9261   21.7994   20.6109 H     339  UNL339      0.1146
   1355 H           9.2303   21.9466   21.5734 H     339  UNL339      0.1146
   1356 H           8.9587   23.0394   20.3983 H     339  UNL339      0.1146
   1357 N           8.1002   22.6277   23.8567 N.3   340  UNL340     -0.3437
   1358 H           7.5071   21.9711   23.3513 H     340  UNL340      0.1146
   1359 H           9.0550   22.2916   23.7394 H     340  UNL340      0.1146
   1360 H           8.0469   23.5066   23.3438 H     340  UNL340      0.1146
   1361 N           7.7932   22.0488   26.4397 N.3   341  UNL341     -0.3437
   1362 H           7.1247   21.8263   27.1759 H     341  UNL341      0.1146
   1363 H           7.9119   23.0606   26.4646 H     341  UNL341      0.1146
   1364 H           8.6834   21.6542   26.7399 H     341  UNL341      0.1146
   1365 N           8.4559   22.4095   29.2689 N.3   342  UNL342     -0.3437
   1366 H           7.6407   22.6490   29.8314 H     342  UNL342      0.1146
   1367 H           9.1324   23.1559   29.4225 H     342  UNL342      0.1146
   1368 H           8.8564   21.5753   29.6957 H     342  UNL342      0.1146
   1369 N           7.8920   21.6839   32.3780 N.3   343  UNL343     -0.3437
   1370 H           7.2695   22.4894   32.4232 H     343  UNL343      0.1146
   1371 H           7.6930   21.2245   31.4905 H     343  UNL343      0.1146
   1372 H           8.8346   22.0618   32.2935 H     343  UNL343      0.1146
   1373 N           8.3458   24.6622   12.3084 N.3   344  UNL344     -0.3437
   1374 H           8.0401   25.6316   12.3799 H     344  UNL344      0.1146
   1375 H           9.1949   24.6763   11.7451 H     344  UNL344      0.1146
   1376 H           8.6356   24.3891   13.2464 H     344  UNL344      0.1146
   1377 N           6.4263   24.8385   26.9102 N.3   345  UNL345     -0.3437
   1378 H           6.5493   24.0717   27.5699 H     345  UNL345      0.1146
   1379 H           7.0977   25.5547   27.1837 H     345  UNL345      0.1146
   1380 H           6.7432   24.4864   26.0080 H     345  UNL345      0.1146
   1381 N           8.1221   24.5929   33.7394 N.3   346  UNL346     -0.3437
   1382 H           7.2759   24.0456   33.8902 H     346  UNL346      0.1146
   1383 H           8.6139   24.1431   32.9687 H     346  UNL346      0.1146
   1384 H           7.8125   25.4969   33.3854 H     346  UNL346      0.1146
   1385 N          11.6114    0.0782    0.8902 N.3   347  UNL347     -0.3437
   1386 H          10.6041   -0.0712    0.9277 H     347  UNL347      0.1146
   1387 H          11.7469    1.0877    0.9203 H     347  UNL347      0.1146
   1388 H          11.9816   -0.2810    1.7690 H     347  UNL347      0.1146
   1389 N          10.3063    1.0914    3.2973 N.3   348  UNL348     -0.3437
   1390 H           9.8926    0.2153    2.9814 H     348  UNL348      0.1146
   1391 H          11.2831    0.8837    3.5001 H     348  UNL348      0.1146
   1392 H          10.3129    1.7076    2.4857 H     348  UNL348      0.1146
   1393 N          11.3827    0.6535    6.1896 N.3   349  UNL349     -0.3437
   1394 H          12.1000    0.9741    5.5406 H     349  UNL349      0.1146
   1395 H          10.9718   -0.1772    5.7660 H     349  UNL349      0.1146
   1396 H          11.8787    0.3299    7.0188 H     349  UNL349      0.1146
   1397 N          10.9491    0.4718    9.4905 N.3   350  UNL350     -0.3437
   1398 H          10.5990    1.4187    9.6290 H     350  UNL350      0.1146
   1399 H          10.4544    0.1053    8.6785 H     350  UNL350      0.1146
   1400 H          11.9223    0.5710    9.2052 H     350  UNL350      0.1146
   1401 N          12.1696   -0.4668   12.3204 N.3   351  UNL351     -0.3437
   1402 H          12.7276   -1.0418   11.6908 H     351  UNL351      0.1146
   1403 H          12.6833   -0.4333   13.1998 H     351  UNL351      0.1146
   1404 H          12.2016    0.4782   11.9403 H     351  UNL351      0.1146
   1405 N          10.8923    0.6638   14.8152 N.3   352  UNL352     -0.3437
   1406 H          10.3796   -0.1781   14.5571 H     352  UNL352      0.1146
   1407 H          10.3105    1.1492   15.4966 H     352  UNL352      0.1146
   1408 H          11.7157    0.3462   15.3247 H     352  UNL352      0.1146
   1409 N          11.4537    0.6505   17.9007 N.3   353  UNL353     -0.3437
   1410 H          10.8872    1.1709   18.5690 H     353  UNL353      0.1146
   1411 H          10.7979    0.1164   17.3324 H     353  UNL353      0.1146
   1412 H          11.8633    1.3457   17.2783 H     353  UNL353      0.1146
   1413 N          11.0550    0.8159   21.2099 N.3   354  UNL354     -0.3437
   1414 H          11.5013    0.2851   20.4633 H     354  UNL354      0.1146
   1415 H          10.4037    1.4518   20.7519 H     354  UNL354      0.1146
   1416 H          10.4815    0.1491   21.7245 H     354  UNL354      0.1146
   1417 N          11.1591    0.4031   24.2790 N.3   355  UNL355     -0.3437
   1418 H          10.6746   -0.2185   24.9249 H     355  UNL355      0.1146
   1419 H          10.4313    0.9177   23.7851 H     355  UNL355      0.1146
   1420 H          11.6434    1.0876   24.8579 H     355  UNL355      0.1146
   1421 N          10.1896    0.7465   27.3425 N.3   356  UNL356     -0.3437
   1422 H          11.1095    0.6330   26.9190 H     356  UNL356      0.1146
   1423 H           9.5284    0.7964   26.5687 H     356  UNL356      0.1146
   1424 H           9.9922   -0.1293   27.8245 H     356  UNL356      0.1146
   1425 N          11.2527    0.9447   30.2439 N.3   357  UNL357     -0.3437
   1426 H          10.5456    0.2959   29.9013 H     357  UNL357      0.1146
   1427 H          11.9863    0.3693   30.6552 H     357  UNL357      0.1146
   1428 H          11.6638    1.3747   29.4166 H     357  UNL357      0.1146
   1429 N          11.2122   -1.2241   32.8537 N.3   358  UNL358     -0.3437
   1430 H          10.4172   -1.7746   33.1751 H     358  UNL358      0.1146
   1431 H          11.7241   -1.8216   32.2061 H     358  UNL358      0.1146
   1432 H          10.8221   -0.4695   32.2909 H     358  UNL358      0.1146
   1433 N          10.9121    3.4662    0.5466 N.3   359  UNL359     -0.3437
   1434 H          10.5490    2.6524    0.0523 H     359  UNL359      0.1146
   1435 H          10.2267    3.6855    1.2681 H     359  UNL359      0.1146
   1436 H          11.7454    3.1471    1.0387 H     359  UNL359      0.1146
   1437 N          11.4266    3.7648    3.9782 N.3   360  UNL360     -0.3437
   1438 H          11.9361    4.3582    4.6314 H     360  UNL360      0.1146
   1439 H          10.6919    3.3145    4.5222 H     360  UNL360      0.1146
   1440 H          10.9524    4.3973    3.3353 H     360  UNL360      0.1146
   1441 N          10.9160    3.5869    7.0195 N.3   361  UNL361     -0.3437
   1442 H          10.0704    3.0201    7.0649 H     361  UNL361      0.1146
   1443 H          11.5912    3.0418    6.4854 H     361  UNL361      0.1146
   1444 H          10.6836    4.3920    6.4397 H     361  UNL361      0.1146
   1445 N          12.4163    3.1516    9.6219 N.3   362  UNL362     -0.3437
   1446 H          11.4866    3.5685    9.6053 H     362  UNL362      0.1146
   1447 H          12.5030    2.6238    8.7545 H     362  UNL362      0.1146
   1448 H          13.0731    3.9269    9.5458 H     362  UNL362      0.1146
   1449 N          11.4581    3.0054   12.2856 N.3   363  UNL363     -0.3437
   1450 H          11.1531    3.8558   12.7570 H     363  UNL363      0.1146
   1451 H          11.3431    2.2524   12.9625 H     363  UNL363      0.1146
   1452 H          10.7732    2.8301   11.5517 H     363  UNL363      0.1146
   1453 N          11.0141    3.6925   15.3807 N.3   364  UNL364     -0.3437
   1454 H          10.4427    3.2130   14.6864 H     364  UNL364      0.1146
   1455 H          11.5594    2.9676   15.8449 H     364  UNL364      0.1146
   1456 H          11.6828    4.2536   14.8550 H     364  UNL364      0.1146
   1457 N           9.9246    3.6143   18.2704 N.3   365  UNL365     -0.3437
   1458 H           9.4983    2.8312   18.7638 H     365  UNL365      0.1146
   1459 H          10.8071    3.2654   17.8992 H     365  UNL365      0.1146
   1460 H           9.3310    3.7933   17.4617 H     365  UNL365      0.1146
   1461 N          11.3254    4.3583   20.6397 N.3   366  UNL366     -0.3437
   1462 H          10.3984    4.4253   21.0575 H     366  UNL366      0.1146
   1463 H          11.9469    4.8887   21.2486 H     366  UNL366      0.1146
   1464 H          11.6058    3.3831   20.7331 H     366  UNL366      0.1146
   1465 N          11.2768    3.4534   23.3608 N.3   367  UNL367     -0.3437
   1466 H          10.4653    3.6203   23.9541 H     367  UNL367      0.1146
   1467 H          11.9827    3.0317   23.9626 H     367  UNL367      0.1146
   1468 H          10.9987    2.7270   22.7024 H     367  UNL367      0.1146
   1469 N          10.9712    3.3217   26.4477 N.3   368  UNL368     -0.3437
   1470 H          10.3546    3.8873   27.0294 H     368  UNL368      0.1146
   1471 H          11.4914    3.9789   25.8682 H     368  UNL368      0.1146
   1472 H          11.6523    2.9062   27.0816 H     368  UNL368      0.1146
   1473 N          11.0941    3.9604   29.5301 N.3   369  UNL369     -0.3437
   1474 H          10.5295    3.2217   29.1129 H     369  UNL369      0.1146
   1475 H          11.6970    3.5020   30.2118 H     369  UNL369      0.1146
   1476 H          11.7101    4.2947   28.7904 H     369  UNL369      0.1146
   1477 N          11.2298    2.1358   33.8752 N.3   370  UNL370     -0.3437
   1478 H          11.5575    1.1710   33.8909 H     370  UNL370      0.1146
   1479 H          11.8674    2.6390   33.2598 H     370  UNL370      0.1146
   1480 H          10.3309    2.1193   33.3955 H     370  UNL370      0.1146
   1481 N          10.9598    6.1605    0.7401 N.3   371  UNL371     -0.3437
   1482 H          10.2512    5.9154    1.4301 H     371  UNL371      0.1146
   1483 H          10.5819    6.9494    0.2174 H     371  UNL371      0.1146
   1484 H          11.7510    6.5264    1.2678 H     371  UNL371      0.1146
   1485 N          10.9824    7.0396    3.6531 N.3   372  UNL372     -0.3437
   1486 H          10.3998    6.3508    4.1270 H     372  UNL372      0.1146
   1487 H          10.3818    7.4881    2.9628 H     372  UNL372      0.1146
   1488 H          11.1940    7.7543    4.3479 H     372  UNL372      0.1146
   1489 N          11.5058    6.6685    6.6128 N.3   373  UNL373     -0.3437
   1490 H          10.5742    6.7603    6.2103 H     373  UNL373      0.1146
   1491 H          11.9691    5.9313    6.0834 H     373  UNL373      0.1146
   1492 H          11.9974    7.5309    6.3827 H     373  UNL373      0.1146
   1493 N          12.0078    6.4439    9.6038 N.3   374  UNL374     -0.3437
   1494 H          11.1229    6.9303    9.7409 H     374  UNL374      0.1146
   1495 H          11.7939    5.6269    9.0336 H     374  UNL374      0.1146
   1496 H          12.5760    7.0542    9.0181 H     374  UNL374      0.1146
   1497 N          11.0080    6.4033   12.5935 N.3   375  UNL375     -0.3437
   1498 H          10.3689    6.3875   13.3870 H     375  UNL375      0.1146
   1499 H          10.4490    6.6812   11.7881 H     375  UNL375      0.1146
   1500 H          11.6525    7.1732   12.7672 H     375  UNL375      0.1146
   1501 N          11.8947    6.9228   15.3920 N.3   376  UNL376     -0.3437
   1502 H          11.2105    6.2381   15.7105 H     376  UNL376      0.1146
   1503 H          12.4564    6.4508   14.6849 H     376  UNL376      0.1146
   1504 H          11.3655    7.6398   14.8978 H     376  UNL376      0.1146
   1505 N          11.0163    7.0175   18.2834 N.3   377  UNL377     -0.3437
   1506 H          10.9986    6.0629   18.6394 H     377  UNL377      0.1146
   1507 H          10.0899    7.4019   18.4640 H     377  UNL377      0.1146
   1508 H          11.6561    7.5310   18.8878 H     377  UNL377      0.1146
   1509 N          10.7033    7.2461   21.4439 N.3   378  UNL378     -0.3437
   1510 H          10.3509    6.4249   21.9337 H     378  UNL378      0.1146
   1511 H          11.5915    6.9666   21.0299 H     378  UNL378      0.1146
   1512 H          10.0667    7.4024   20.6637 H     378  UNL378      0.1146
   1513 N          11.8906    6.3572   24.0636 N.3   379  UNL379     -0.3437
   1514 H          10.8846    6.5190   24.0672 H     379  UNL379      0.1146
   1515 H          12.0516    5.5748   24.6963 H     379  UNL379      0.1146
   1516 H          12.1167    6.0151   23.1307 H     379  UNL379      0.1146
   1517 N          11.0472    6.3779   26.8719 N.3   380  UNL380     -0.3437
   1518 H          10.4244    6.0309   26.1438 H     380  UNL380      0.1146
   1519 H          10.7355    5.9429   27.7390 H     380  UNL380      0.1146
   1520 H          11.9633    5.9793   26.6713 H     380  UNL380      0.1146
   1521 N          11.3734    6.9793   29.9477 N.3   381  UNL381     -0.3437
   1522 H          10.5145    6.4327   29.9919 H     381  UNL381      0.1146
   1523 H          12.1352    6.3032   29.9168 H     381  UNL381      0.1146
   1524 H          11.3680    7.4379   29.0378 H     381  UNL381      0.1146
   1525 N          10.8347    4.8843   32.3022 N.3   382  UNL382     -0.3437
   1526 H          10.4700    3.9452   32.1486 H     382  UNL382      0.1146
   1527 H          10.9385    4.9838   33.3110 H     382  UNL382      0.1146
   1528 H          11.7799    4.8842   31.9213 H     382  UNL382      0.1146
   1529 N          11.3012    9.0624    1.1369 N.3   383  UNL383     -0.3437
   1530 H          11.9647    9.5347    1.7492 H     383  UNL383      0.1146
   1531 H          10.7077    9.7939    0.7482 H     383  UNL383      0.1146
   1532 H          11.8476    8.7001    0.3568 H     383  UNL383      0.1146
   1533 N          10.2266   10.0441    3.6600 N.3   384  UNL384     -0.3437
   1534 H          11.2139    9.8951    3.8634 H     384  UNL384      0.1146
   1535 H           9.7231    9.3146    4.1629 H     384  UNL384      0.1146
   1536 H           9.9758   10.9217    4.1131 H     384  UNL384      0.1146
   1537 N          10.7365   10.1511    6.4575 N.3   385  UNL385     -0.3437
   1538 H          10.5363   10.7378    7.2662 H     385  UNL385      0.1146
   1539 H          11.4593   10.6379    5.9293 H     385  UNL385      0.1146
   1540 H          11.1763    9.3081    6.8241 H     385  UNL385      0.1146
   1541 N          11.8149    9.7385    9.3591 N.3   386  UNL386     -0.3437
   1542 H          12.2467   10.2645    8.6007 H     386  UNL386      0.1146
   1543 H          11.0335   10.3056    9.6850 H     386  UNL386      0.1146
   1544 H          11.4019    8.9125    8.9283 H     386  UNL386      0.1146
   1545 N          11.1444    9.6882   12.2423 N.3   387  UNL387     -0.3437
   1546 H          11.7474    9.3593   12.9950 H     387  UNL387      0.1146
   1547 H          10.5648    8.8925   11.9786 H     387  UNL387      0.1146
   1548 H          10.5132   10.3676   12.6645 H     387  UNL387      0.1146
   1549 N          11.1730   11.2700   14.9339 N.3   388  UNL388     -0.3437
   1550 H          10.4505   11.7963   14.4448 H     388  UNL388      0.1146
   1551 H          10.9326   10.2867   14.8163 H     388  UNL388      0.1146
   1552 H          12.0321   11.4142   14.4052 H     388  UNL388      0.1146
   1553 N          10.8852    9.9982   17.4422 N.3   389  UNL389     -0.3437
   1554 H          11.7095   10.5111   17.7517 H     389  UNL389      0.1146
   1555 H          10.5741    9.4550   18.2462 H     389  UNL389      0.1146
   1556 H          10.1631   10.6986   17.2800 H     389  UNL389      0.1146
   1557 N          11.2415    9.7751   20.6510 N.3   390  UNL390     -0.3437
   1558 H          11.1417   10.3545   21.4832 H     390  UNL390      0.1146
   1559 H          10.2949    9.5900   20.3223 H     390  UNL390      0.1146
   1560 H          11.6726   10.3699   19.9447 H     390  UNL390      0.1146
   1561 N          11.8797    9.2770   23.6711 N.3   391  UNL391     -0.3437
   1562 H          11.0848    8.6513   23.5487 H     391  UNL391      0.1146
   1563 H          12.4440    9.1825   22.8279 H     391  UNL391      0.1146
   1564 H          11.4991   10.2220   23.6498 H     391  UNL391      0.1146
   1565 N          11.3983    9.6508   26.4502 N.3   392  UNL392     -0.3437
   1566 H          10.6554   10.1777   25.9933 H     392  UNL392      0.1146
   1567 H          11.8917   10.3170   27.0428 H     392  UNL392      0.1146
   1568 H          10.9337    9.0018   27.0837 H     392  UNL392      0.1146
   1569 N          11.2624    9.9151   29.5084 N.3   393  UNL393     -0.3437
   1570 H          10.6730   10.3430   28.7958 H     393  UNL393      0.1146
   1571 H          10.6663    9.2563   30.0075 H     393  UNL393      0.1146
   1572 H          11.9457    9.3504   29.0059 H     393  UNL393      0.1146
   1573 N          10.7017    7.8669   33.1694 N.3   394  UNL394     -0.3437
   1574 H          10.0788    7.8397   32.3633 H     394  UNL394      0.1146
   1575 H          10.3823    7.1298   33.7962 H     394  UNL394      0.1146
   1576 H          11.6150    7.5696   32.8287 H     394  UNL394      0.1146
   1577 N          11.0629   12.3488    0.5032 N.3   395  UNL395     -0.3437
   1578 H          10.4802   12.7291    1.2477 H     395  UNL395      0.1146
   1579 H          11.6318   13.1247    0.1677 H     395  UNL395      0.1146
   1580 H          11.7083   11.7019    0.9543 H     395  UNL395      0.1146
   1581 N          11.7576   12.4424    3.3437 N.3   396  UNL396     -0.3437
   1582 H          11.5907   13.4092    3.6192 H     396  UNL396      0.1146
   1583 H          12.6252   12.4484    2.8094 H     396  UNL396      0.1146
   1584 H          11.9613   11.9363    4.2043 H     396  UNL396      0.1146
   1585 N          11.1256   13.3441    6.2424 N.3   397  UNL397     -0.3437
   1586 H          10.4999   12.8889    5.5794 H     397  UNL397      0.1146
   1587 H          11.4838   12.6039    6.8443 H     397  UNL397      0.1146
   1588 H          11.9214   13.6727    5.6974 H     397  UNL397      0.1146
   1589 N          11.3181   12.9727    9.3968 N.3   398  UNL398     -0.3437
   1590 H          10.3645   12.7487    9.6774 H     398  UNL398      0.1146
   1591 H          11.5251   13.8825    9.8065 H     398  UNL398      0.1146
   1592 H          11.9172   12.3046    9.8796 H     398  UNL398      0.1146
   1593 N          10.9847   13.1319   12.2194 N.3   399  UNL399     -0.3437
   1594 H          10.4318   13.4952   12.9944 H     399  UNL399      0.1146
   1595 H          11.6709   13.8531   12.0015 H     399  UNL399      0.1146
   1596 H          11.5132   12.3460   12.5955 H     399  UNL399      0.1146
   1597 N          11.8830   14.2065   14.9532 N.3   400  UNL400     -0.3437
   1598 H          10.9344   13.8647   15.1004 H     400  UNL400      0.1146
   1599 H          12.3843   14.0269   15.8220 H     400  UNL400      0.1146
   1600 H          12.2988   13.5900   14.2565 H     400  UNL400      0.1146
   1601 N          10.9531   13.2534   17.9151 N.3   401  UNL401     -0.3437
   1602 H          10.8720   12.6828   17.0747 H     401  UNL401      0.1146
   1603 H          11.8163   12.9609   18.3709 H     401  UNL401      0.1146
   1604 H          11.1148   14.2065   17.5928 H     401  UNL401      0.1146
   1605 N          11.1487   12.7395   20.9671 N.3   402  UNL402     -0.3437
   1606 H          10.5124   12.2985   20.3045 H     402  UNL402      0.1146
   1607 H          10.9157   13.7315   20.9625 H     402  UNL402      0.1146
   1608 H          10.8810   12.3924   21.8870 H     402  UNL402      0.1146
   1609 N          11.0270   13.9332   23.8233 N.3   403  UNL403     -0.3437
   1610 H          10.3962   13.3322   24.3517 H     403  UNL403      0.1146
   1611 H          11.7577   13.3231   23.4598 H     403  UNL403      0.1146
   1612 H          10.4981   14.2517   23.0126 H     403  UNL403      0.1146
   1613 N          11.3832   12.9013   26.7564 N.3   404  UNL404     -0.3437
   1614 H          10.9081   12.2013   27.3245 H     404  UNL404      0.1146
   1615 H          11.6822   12.4199   25.9096 H     404  UNL404      0.1146
   1616 H          10.6640   13.5617   26.4650 H     404  UNL404      0.1146
   1617 N          11.7104   12.6651   29.8164 N.3   405  UNL405     -0.3437
   1618 H          12.0683   12.7945   30.7617 H     405  UNL405      0.1146
   1619 H          10.9166   13.2978   29.7275 H     405  UNL405      0.1146
   1620 H          12.4295   13.0272   29.1918 H     405  UNL405      0.1146
   1621 N          11.1554   10.9477   33.7416 N.3   406  UNL406     -0.3437
   1622 H          10.1891   11.2682   33.6990 H     406  UNL406      0.1146
   1623 H          11.3826   10.6151   32.8055 H     406  UNL406      0.1146
   1624 H          11.7219   11.7820   33.8884 H     406  UNL406      0.1146
   1625 N          10.9660   15.4430    0.0654 N.3   407  UNL407     -0.3437
   1626 H          10.6335   16.3633   -0.2186 H     407  UNL407      0.1146
   1627 H          10.2485   14.7819   -0.2288 H     407  UNL407      0.1146
   1628 H          11.7818   15.2481   -0.5133 H     407  UNL407      0.1146
   1629 N          11.2488   16.2494    2.9191 N.3   408  UNL408     -0.3437
   1630 H          10.4842   15.6078    2.7137 H     408  UNL408      0.1146
   1631 H          10.8814   16.9164    3.5962 H     408  UNL408      0.1146
   1632 H          11.9493   15.7014    3.4164 H     408  UNL408      0.1146
   1633 N          10.3049   16.1180    5.9759 N.3   409  UNL409     -0.3437
   1634 H          10.9218   16.7036    6.5371 H     409  UNL409      0.1146
   1635 H          10.9114   15.5894    5.3506 H     409  UNL409      0.1146
   1636 H           9.9025   15.4373    6.6187 H     409  UNL409      0.1146
   1637 N          10.9156   16.0234    8.9982 N.3   410  UNL410     -0.3437
   1638 H          11.5668   16.7879    9.1705 H     410  UNL410      0.1146
   1639 H          10.0957   16.4451    8.5643 H     410  UNL410      0.1146
   1640 H          11.3467   15.4438    8.2795 H     410  UNL410      0.1146
   1641 N          10.5067   16.1997   12.2285 N.3   411  UNL411     -0.3437
   1642 H          10.0636   16.9090   12.8107 H     411  UNL411      0.1146
   1643 H          11.1787   16.6953   11.6444 H     411  UNL411      0.1146
   1644 H          11.0575   15.6211   12.8611 H     411  UNL411      0.1146
   1645 N          10.1745   16.3998   15.2137 N.3   412  UNL412     -0.3437
   1646 H          11.0663   16.6647   14.7979 H     412  UNL412      0.1146
   1647 H           9.5157   17.1334   14.9563 H     412  UNL412      0.1146
   1648 H           9.8709   15.5631   14.7177 H     412  UNL412      0.1146
   1649 N          10.9103   16.6018   18.2914 N.3   413  UNL413     -0.3437
   1650 H          10.3660   16.2219   17.5182 H     413  UNL413      0.1146
   1651 H          10.2789   17.2153   18.8045 H     413  UNL413      0.1146
   1652 H          11.1039   15.8164   18.9111 H     413  UNL413      0.1146
   1653 N          11.0635   16.1567   21.5376 N.3   414  UNL414     -0.3437
   1654 H          10.3808   16.7896   21.9521 H     414  UNL414      0.1146
   1655 H          11.5864   16.7114   20.8614 H     414  UNL414      0.1146
   1656 H          11.7214   15.9273   22.2812 H     414  UNL414      0.1146
   1657 N          11.0871   16.9686   24.5437 N.3   415  UNL415     -0.3437
   1658 H          10.5018   16.2710   24.0865 H     415  UNL415      0.1146
   1659 H          11.7632   16.4471   25.0999 H     415  UNL415      0.1146
   1660 H          11.6212   17.4175   23.8010 H     415  UNL415      0.1146
   1661 N          11.6211   16.1382   27.7310 N.3   416  UNL416     -0.3437
   1662 H          12.0469   16.9045   27.2116 H     416  UNL416      0.1146
   1663 H          10.6140   16.2792   27.6645 H     416  UNL416      0.1146
   1664 H          11.8219   15.2925   27.1990 H     416  UNL416      0.1146
   1665 N          11.7810   15.4153   31.0111 N.3   417  UNL417     -0.3437
   1666 H          10.9985   15.9974   31.3063 H     417  UNL417      0.1146
   1667 H          12.5976   16.0248   31.0043 H     417  UNL417      0.1146
   1668 H          11.9351   14.7479   31.7656 H     417  UNL417      0.1146
   1669 N          10.5400   14.1506   33.8456 N.3   418  UNL418     -0.3437
   1670 H          10.4268   15.1632   33.8563 H     418  UNL418      0.1146
   1671 H          10.1805   13.8372   32.9450 H     418  UNL418      0.1146
   1672 H          11.5444   13.9805   33.8215 H     418  UNL418      0.1146
   1673 N          11.9596   18.6558   -0.1956 N.3   419  UNL419     -0.3437
   1674 H          11.1292   18.4432   -0.7465 H     419  UNL419      0.1146
   1675 H          11.7336   19.4913    0.3423 H     419  UNL419      0.1146
   1676 H          12.0475   17.9005    0.4828 H     419  UNL419      0.1146
   1677 N          11.1381   19.4112    2.8480 N.3   420  UNL420     -0.3437
   1678 H          10.9146   18.6227    2.2424 H     420  UNL420      0.1146
   1679 H          12.1376   19.3468    3.0357 H     420  UNL420      0.1146
   1680 H          11.0125   20.2470    2.2788 H     420  UNL420      0.1146
   1681 N          11.3841   19.0050    5.7687 N.3   421  UNL421     -0.3437
   1682 H          11.7947   18.2392    5.2365 H     421  UNL421      0.1146
   1683 H          11.5635   18.7935    6.7493 H     421  UNL421      0.1146
   1684 H          11.9432   19.8290    5.5523 H     421  UNL421      0.1146
   1685 N          10.8191   18.9541    9.0689 N.3   422  UNL422     -0.3437
   1686 H          11.5899   19.4741    9.4857 H     422  UNL422      0.1146
   1687 H          10.4131   18.4014    9.8225 H     422  UNL422      0.1146
   1688 H          10.1155   19.6474    8.8186 H     422  UNL422      0.1146
   1689 N          11.4597   19.3574   11.9442 N.3   423  UNL423     -0.3437
   1690 H          10.7792   18.7873   12.4445 H     423  UNL423      0.1146
   1691 H          10.9261   20.0964   11.4886 H     423  UNL423      0.1146
   1692 H          12.0213   19.8168   12.6597 H     423  UNL423      0.1146
   1693 N          10.9246   19.3101   14.9983 N.3   424  UNL424     -0.3437
   1694 H          10.4657   19.9070   14.3117 H     424  UNL424      0.1146
   1695 H          11.5107   18.6686   14.4659 H     424  UNL424      0.1146
   1696 H          11.5644   19.9140   15.5125 H     424  UNL424      0.1146
   1697 N          11.2926   19.5220   18.0151 N.3   425  UNL425     -0.3437
   1698 H          10.6070   19.1429   17.3635 H     425  UNL425      0.1146
   1699 H          12.0946   18.8947   17.9755 H     425  UNL425      0.1146
   1700 H          11.6058   20.4038   17.6117 H     425  UNL425      0.1146
   1701 N          11.3268   19.0638   21.1262 N.3   426  UNL426     -0.3437
   1702 H          10.9196   19.9053   21.5316 H     426  UNL426      0.1146
   1703 H          10.5997   18.6533   20.5420 H     426  UNL426      0.1146
   1704 H          12.0535   19.3831   20.4872 H     426  UNL426      0.1146
   1705 N          10.7209   19.7114   24.1245 N.3   427  UNL427     -0.3437
   1706 H          11.5993   19.6559   23.6111 H     427  UNL427      0.1146
   1707 H          10.4048   20.6762   24.0368 H     427  UNL427      0.1146
   1708 H          10.0529   19.1484   23.5999 H     427  UNL427      0.1146
   1709 N          10.5858   18.7984   27.0675 N.3   428  UNL428     -0.3437
   1710 H          10.3822   19.7118   27.4707 H     428  UNL428      0.1146
   1711 H           9.8537   18.6253   26.3800 H     428  UNL428      0.1146
   1712 H          11.4483   18.9115   26.5368 H     428  UNL428      0.1146
   1713 N          11.5362   19.2827   29.8580 N.3   429  UNL429     -0.3437
   1714 H          10.5583   19.4694   29.6407 H     429  UNL429      0.1146
   1715 H          11.7070   18.3181   29.5775 H     429  UNL429      0.1146
   1716 H          12.0811   19.8613   29.2202 H     429  UNL429      0.1146
   1717 N          10.6781   18.5151   32.7795 N.3   430  UNL430     -0.3437
   1718 H          10.1609   19.3017   32.3895 H     430  UNL430      0.1146
   1719 H          10.1599   17.6788   32.5139 H     430  UNL430      0.1146
   1720 H          11.5577   18.4752   32.2664 H     430  UNL430      0.1146
   1721 N          11.3334   22.2184    0.1846 N.3   431  UNL431     -0.3437
   1722 H          10.5491   22.2727   -0.4637 H     431  UNL431      0.1146
   1723 H          12.0389   21.6447   -0.2755 H     431  UNL431      0.1146
   1724 H          11.7237   23.1585    0.2327 H     431  UNL431      0.1146
   1725 N          11.1934   22.1344    4.0165 N.3   432  UNL432     -0.3437
   1726 H          11.0581   22.3290    3.0254 H     432  UNL432      0.1146
   1727 H          10.8277   22.9448    4.5143 H     432  UNL432      0.1146
   1728 H          10.5671   21.3620    4.2391 H     432  UNL432      0.1146
   1729 N          11.1876   21.6942    7.0654 N.3   433  UNL433     -0.3437
   1730 H          10.5743   21.1841    6.4314 H     433  UNL433      0.1146
   1731 H          11.9432   21.0526    7.3020 H     433  UNL433      0.1146
   1732 H          11.6123   22.4354    6.5098 H     433  UNL433      0.1146
   1733 N          10.7910   22.4904    9.9323 N.3   434  UNL434     -0.3437
   1734 H          10.0900   22.8594    9.2914 H     434  UNL434      0.1146
   1735 H          10.7096   21.4758    9.8838 H     434  UNL434      0.1146
   1736 H          11.6951   22.7194    9.5218 H     434  UNL434      0.1146
   1737 N          10.7180   22.2358   12.8348 N.3   435  UNL435     -0.3437
   1738 H          10.0146   22.6323   13.4564 H     435  UNL435      0.1146
   1739 H          11.2613   23.0242   12.4862 H     435  UNL435      0.1146
   1740 H          11.3492   21.7010   13.4297 H     435  UNL435      0.1146
   1741 N          11.1413   22.4328   15.8696 N.3   436  UNL436     -0.3437
   1742 H          10.4617   21.8067   15.4399 H     436  UNL436      0.1146
   1743 H          11.9604   21.8615   16.0725 H     436  UNL436      0.1146
   1744 H          11.4263   23.0826   15.1382 H     436  UNL436      0.1146
   1745 N          12.7334   23.2234   18.1329 N.3   437  UNL437     -0.3437
   1746 H          11.7586   23.5080   18.2170 H     437  UNL437      0.1146
   1747 H          13.0681   23.6229   17.2572 H     437  UNL437      0.1146
   1748 H          13.2337   23.7124   18.8739 H     437  UNL437      0.1146
   1749 N          11.2935   21.8568   19.9769 N.3   438  UNL438     -0.3437
   1750 H          11.3021   22.2889   20.8997 H     438  UNL438      0.1146
   1751 H          12.1663   21.3361   19.9025 H     438  UNL438      0.1146
   1752 H          10.5514   21.1589   20.0005 H     438  UNL438      0.1146
   1753 N          11.9409   22.7271   23.4248 N.3   439  UNL439     -0.3437
   1754 H          11.0882   22.4555   22.9375 H     439  UNL439      0.1146
   1755 H          11.6647   23.4405   24.0979 H     439  UNL439      0.1146
   1756 H          12.2210   21.9160   23.9743 H     439  UNL439      0.1146
   1757 N          11.5244   21.5116   26.3603 N.3   440  UNL440     -0.3437
   1758 H          11.6649   21.4931   27.3694 H     440  UNL440      0.1146
   1759 H          11.7785   22.4511   26.0585 H     440  UNL440      0.1146
   1760 H          12.2297   20.8900   25.9671 H     440  UNL440      0.1146
   1761 N          11.3575   22.1348   30.3728 N.3   441  UNL441     -0.3437
   1762 H          11.8046   23.0397   30.2328 H     441  UNL441      0.1146
   1763 H          10.5215   22.3172   30.9263 H     441  UNL441      0.1146
   1764 H          11.0276   21.8395   29.4550 H     441  UNL441      0.1146
   1765 N          10.9637   21.4397   33.7603 N.3   442  UNL442     -0.3437
   1766 H          10.9486   22.4538   33.8594 H     442  UNL442      0.1146
   1767 H          10.0015   21.1304   33.8905 H     442  UNL442      0.1146
   1768 H          11.1877   21.2564   32.7832 H     442  UNL442      0.1146
   1769 N           9.6611   25.0270   26.7673 N.3   443  UNL443     -0.3437
   1770 H           8.9379   25.2072   26.0723 H     443  UNL443      0.1146
   1771 H           9.2101   24.4956   27.5107 H     443  UNL443      0.1146
   1772 H          10.3214   24.3883   26.3264 H     443  UNL443      0.1146
@<TRIPOS>BOND
     1     1     2    1
     2     1     3    1
     3     1     4    1
     4     5     6    1
     5     5     7    1
     6     5     8    1
     7     9    10    1
     8     9    11    1
     9     9    12    1
    10    13    14    1
    11    13    15    1
    12    13    16    1
    13    17    18    1
    14    17    19    1
    15    17    20    1
    16    21    22    1
    17    21    23    1
    18    21    24    1
    19    25    26    1
    20    25    27    1
    21    25    28    1
    22    29    30    1
    23    29    31    1
    24    29    32    1
    25    33    34    1
    26    33    35    1
    27    33    36    1
    28    37    38    1
    29    37    39    1
    30    37    40    1
    31    41    42    1
    32    41    43    1
    33    41    44    1
    34    45    46    1
    35    45    47    1
    36    45    48    1
    37    49    50    1
    38    49    51    1
    39    49    52    1
    40    53    54    1
    41    53    55    1
    42    53    56    1
    43    57    58    1
    44    57    59    1
    45    57    60    1
    46    61    62    1
    47    61    63    1
    48    61    64    1
    49    65    66    1
    50    65    67    1
    51    65    68    1
    52    69    70    1
    53    69    71    1
    54    69    72    1
    55    73    74    1
    56    73    75    1
    57    73    76    1
    58    77    78    1
    59    77    79    1
    60    77    80    1
    61    81    82    1
    62    81    83    1
    63    81    84    1
    64    85    86    1
    65    85    87    1
    66    85    88    1
    67    89    90    1
    68    89    91    1
    69    89    92    1
    70    93    94    1
    71    93    95    1
    72    93    96    1
    73    97    98    1
    74    97    99    1
    75    97   100    1
    76   101   102    1
    77   101   103    1
    78   101   104    1
    79   105   106    1
    80   105   107    1
    81   105   108    1
    82   109   110    1
    83   109   111    1
    84   109   112    1
    85   113   114    1
    86   113   115    1
    87   113   116    1
    88   117   118    1
    89   117   119    1
    90   117   120    1
    91   121   122    1
    92   121   123    1
    93   121   124    1
    94   125   126    1
    95   125   127    1
    96   125   128    1
    97   129   130    1
    98   129   131    1
    99   129   132    1
   100   133   134    1
   101   133   135    1
   102   133   136    1
   103   137   138    1
   104   137   139    1
   105   137   140    1
   106   141   142    1
   107   141   143    1
   108   141   144    1
   109   145   146    1
   110   145   147    1
   111   145   148    1
   112   149   150    1
   113   149   151    1
   114   149   152    1
   115   153   154    1
   116   153   155    1
   117   153   156    1
   118   157   158    1
   119   157   159    1
   120   157   160    1
   121   161   162    1
   122   161   163    1
   123   161   164    1
   124   165   166    1
   125   165   167    1
   126   165   168    1
   127   169   170    1
   128   169   171    1
   129   169   172    1
   130   173   174    1
   131   173   175    1
   132   173   176    1
   133   177   178    1
   134   177   179    1
   135   177   180    1
   136   181   182    1
   137   181   183    1
   138   181   184    1
   139   185   186    1
   140   185   187    1
   141   185   188    1
   142   189   190    1
   143   189   191    1
   144   189   192    1
   145   193   194    1
   146   193   195    1
   147   193   196    1
   148   197   198    1
   149   197   199    1
   150   197   200    1
   151   201   202    1
   152   201   203    1
   153   201   204    1
   154   205   206    1
   155   205   207    1
   156   205   208    1
   157   209   210    1
   158   209   211    1
   159   209   212    1
   160   213   214    1
   161   213   215    1
   162   213   216    1
   163   217   218    1
   164   217   219    1
   165   217   220    1
   166   221   222    1
   167   221   223    1
   168   221   224    1
   169   225   226    1
   170   225   227    1
   171   225   228    1
   172   229   230    1
   173   229   231    1
   174   229   232    1
   175   233   234    1
   176   233   235    1
   177   233   236    1
   178   237   238    1
   179   237   239    1
   180   237   240    1
   181   241   242    1
   182   241   243    1
   183   241   244    1
   184   245   246    1
   185   245   247    1
   186   245   248    1
   187   249   250    1
   188   249   251    1
   189   249   252    1
   190   253   254    1
   191   253   255    1
   192   253   256    1
   193   257   258    1
   194   257   259    1
   195   257   260    1
   196   261   262    1
   197   261   263    1
   198   261   264    1
   199   265   266    1
   200   265   267    1
   201   265   268    1
   202   269   270    1
   203   269   271    1
   204   269   272    1
   205   273   274    1
   206   273   275    1
   207   273   276    1
   208   277   278    1
   209   277   279    1
   210   277   280    1
   211   281   282    1
   212   281   283    1
   213   281   284    1
   214   285   286    1
   215   285   287    1
   216   285   288    1
   217   289   290    1
   218   289   291    1
   219   289   292    1
   220   293   294    1
   221   293   295    1
   222   293   296    1
   223   297   298    1
   224   297   299    1
   225   297   300    1
   226   301   302    1
   227   301   303    1
   228   301   304    1
   229   305   306    1
   230   305   307    1
   231   305   308    1
   232   309   310    1
   233   309   311    1
   234   309   312    1
   235   313   314    1
   236   313   315    1
   237   313   316    1
   238   317   318    1
   239   317   319    1
   240   317   320    1
   241   321   322    1
   242   321   323    1
   243   321   324    1
   244   325   326    1
   245   325   327    1
   246   325   328    1
   247   329   330    1
   248   329   331    1
   249   329   332    1
   250   333   334    1
   251   333   335    1
   252   333   336    1
   253   337   338    1
   254   337   339    1
   255   337   340    1
   256   341   342    1
   257   341   343    1
   258   341   344    1
   259   345   346    1
   260   345   347    1
   261   345   348    1
   262   349   350    1
   263   349   351    1
   264   349   352    1
   265   353   354    1
   266   353   355    1
   267   353   356    1
   268   357   358    1
   269   357   359    1
   270   357   360    1
   271   361   362    1
   272   361   363    1
   273   361   364    1
   274   365   366    1
   275   365   367    1
   276   365   368    1
   277   369   370    1
   278   369   371    1
   279   369   372    1
   280   373   374    1
   281   373   375    1
   282   373   376    1
   283   377   378    1
   284   377   379    1
   285   377   380    1
   286   381   382    1
   287   381   383    1
   288   381   384    1
   289   385   386    1
   290   385   387    1
   291   385   388    1
   292   389   390    1
   293   389   391    1
   294   389   392    1
   295   393   394    1
   296   393   395    1
   297   393   396    1
   298   397   398    1
   299   397   399    1
   300   397   400    1
   301   401   402    1
   302   401   403    1
   303   401   404    1
   304   405   406    1
   305   405   407    1
   306   405   408    1
   307   409   410    1
   308   409   411    1
   309   409   412    1
   310   413   414    1
   311   413   415    1
   312   413   416    1
   313   417   418    1
   314   417   419    1
   315   417   420    1
   316   421   422    1
   317   421   423    1
   318   421   424    1
   319   425   426    1
   320   425   427    1
   321   425   428    1
   322   429   430    1
   323   429   431    1
   324   429   432    1
   325   433   434    1
   326   433   435    1
   327   433   436    1
   328   437   438    1
   329   437   439    1
   330   437   440    1
   331   441   442    1
   332   441   443    1
   333   441   444    1
   334   445   446    1
   335   445   447    1
   336   445   448    1
   337   449   450    1
   338   449   451    1
   339   449   452    1
   340   453   454    1
   341   453   455    1
   342   453   456    1
   343   457   458    1
   344   457   459    1
   345   457   460    1
   346   461   462    1
   347   461   463    1
   348   461   464    1
   349   465   466    1
   350   465   467    1
   351   465   468    1
   352   469   470    1
   353   469   471    1
   354   469   472    1
   355   473   474    1
   356   473   475    1
   357   473   476    1
   358   477   478    1
   359   477   479    1
   360   477   480    1
   361   481   482    1
   362   481   483    1
   363   481   484    1
   364   485   486    1
   365   485   487    1
   366   485   488    1
   367   489   490    1
   368   489   491    1
   369   489   492    1
   370   493   494    1
   371   493   495    1
   372   493   496    1
   373   497   498    1
   374   497   499    1
   375   497   500    1
   376   501   502    1
   377   501   503    1
   378   501   504    1
   379   505   506    1
   380   505   507    1
   381   505   508    1
   382   509   510    1
   383   509   511    1
   384   509   512    1
   385   513   514    1
   386   513   515    1
   387   513   516    1
   388   517   518    1
   389   517   519    1
   390   517   520    1
   391   521   522    1
   392   521   523    1
   393   521   524    1
   394   525   526    1
   395   525   527    1
   396   525   528    1
   397   529   530    1
   398   529   531    1
   399   529   532    1
   400   533   534    1
   401   533   535    1
   402   533   536    1
   403   537   538    1
   404   537   539    1
   405   537   540    1
   406   541   542    1
   407   541   543    1
   408   541   544    1
   409   545   546    1
   410   545   547    1
   411   545   548    1
   412   549   550    1
   413   549   551    1
   414   549   552    1
   415   553   554    1
   416   553   555    1
   417   553   556    1
   418   557   558    1
   419   557   559    1
   420   557   560    1
   421   561   562    1
   422   561   563    1
   423   561   564    1
   424   565   566    1
   425   565   567    1
   426   565   568    1
   427   569   570    1
   428   569   571    1
   429   569   572    1
   430   573   574    1
   431   573   575    1
   432   573   576    1
   433   577   578    1
   434   577   579    1
   435   577   580    1
   436   581   582    1
   437   581   583    1
   438   581   584    1
   439   585   586    1
   440   585   587    1
   441   585   588    1
   442   589   590    1
   443   589   591    1
   444   589   592    1
   445   593   594    1
   446   593   595    1
   447   593   596    1
   448   597   598    1
   449   597   599    1
   450   597   600    1
   451   601   602    1
   452   601   603    1
   453   601   604    1
   454   605   606    1
   455   605   607    1
   456   605   608    1
   457   609   610    1
   458   609   611    1
   459   609   612    1
   460   613   614    1
   461   613   615    1
   462   613   616    1
   463   617   618    1
   464   617   619    1
   465   617   620    1
   466   621   622    1
   467   621   623    1
   468   621   624    1
   469   625   626    1
   470   625   627    1
   471   625   628    1
   472   629   630    1
   473   629   631    1
   474   629   632    1
   475   633   634    1
   476   633   635    1
   477   633   636    1
   478   637   638    1
   479   637   639    1
   480   637   640    1
   481   641   642    1
   482   641   643    1
   483   641   644    1
   484   645   646    1
   485   645   647    1
   486   645   648    1
   487   649   650    1
   488   649   651    1
   489   649   652    1
   490   653   654    1
   491   653   655    1
   492   653   656    1
   493   657   658    1
   494   657   659    1
   495   657   660    1
   496   661   662    1
   497   661   663    1
   498   661   664    1
   499   665   666    1
   500   665   667    1
   501   665   668    1
   502   669   670    1
   503   669   671    1
   504   669   672    1
   505   673   674    1
   506   673   675    1
   507   673   676    1
   508   677   678    1
   509   677   679    1
   510   677   680    1
   511   681   682    1
   512   681   683    1
   513   681   684    1
   514   685   686    1
   515   685   687    1
   516   685   688    1
   517   689   690    1
   518   689   691    1
   519   689   692    1
   520   693   694    1
   521   693   695    1
   522   693   696    1
   523   697   698    1
   524   697   699    1
   525   697   700    1
   526   701   702    1
   527   701   703    1
   528   701   704    1
   529   705   706    1
   530   705   707    1
   531   705   708    1
   532   709   710    1
   533   709   711    1
   534   709   712    1
   535   713   714    1
   536   713   715    1
   537   713   716    1
   538   717   718    1
   539   717   719    1
   540   717   720    1
   541   721   722    1
   542   721   723    1
   543   721   724    1
   544   725   726    1
   545   725   727    1
   546   725   728    1
   547   729   730    1
   548   729   731    1
   549   729   732    1
   550   733   734    1
   551   733   735    1
   552   733   736    1
   553   737   738    1
   554   737   739    1
   555   737   740    1
   556   741   742    1
   557   741   743    1
   558   741   744    1
   559   745   746    1
   560   745   747    1
   561   745   748    1
   562   749   750    1
   563   749   751    1
   564   749   752    1
   565   753   754    1
   566   753   755    1
   567   753   756    1
   568   757   758    1
   569   757   759    1
   570   757   760    1
   571   761   762    1
   572   761   763    1
   573   761   764    1
   574   765   766    1
   575   765   767    1
   576   765   768    1
   577   769   770    1
   578   769   771    1
   579   769   772    1
   580   773   774    1
   581   773   775    1
   582   773   776    1
   583   777   778    1
   584   777   779    1
   585   777   780    1
   586   781   782    1
   587   781   783    1
   588   781   784    1
   589   785   786    1
   590   785   787    1
   591   785   788    1
   592   789   790    1
   593   789   791    1
   594   789   792    1
   595   793   794    1
   596   793   795    1
   597   793   796    1
   598   797   798    1
   599   797   799    1
   600   797   800    1
   601   801   802    1
   602   801   803    1
   603   801   804    1
   604   805   806    1
   605   805   807    1
   606   805   808    1
   607   809   810    1
   608   809   811    1
   609   809   812    1
   610   813   814    1
   611   813   815    1
   612   813   816    1
   613   817   818    1
   614   817   819    1
   615   817   820    1
   616   821   822    1
   617   821   823    1
   618   821   824    1
   619   825   826    1
   620   825   827    1
   621   825   828    1
   622   829   830    1
   623   829   831    1
   624   829   832    1
   625   833   834    1
   626   833   835    1
   627   833   836    1
   628   837   838    1
   629   837   839    1
   630   837   840    1
   631   841   842    1
   632   841   843    1
   633   841   844    1
   634   845   846    1
   635   845   847    1
   636   845   848    1
   637   849   850    1
   638   849   851    1
   639   849   852    1
   640   853   854    1
   641   853   855    1
   642   853   856    1
   643   857   858    1
   644   857   859    1
   645   857   860    1
   646   861   862    1
   647   861   863    1
   648   861   864    1
   649   865   866    1
   650   865   867    1
   651   865   868    1
   652   869   870    1
   653   869   871    1
   654   869   872    1
   655   873   874    1
   656   873   875    1
   657   873   876    1
   658   877   878    1
   659   877   879    1
   660   877   880    1
   661   881   882    1
   662   881   883    1
   663   881   884    1
   664   885   886    1
   665   885   887    1
   666   885   888    1
   667   889   890    1
   668   889   891    1
   669   889   892    1
   670   893   894    1
   671   893   895    1
   672   893   896    1
   673   897   898    1
   674   897   899    1
   675   897   900    1
   676   901   902    1
   677   901   903    1
   678   901   904    1
   679   905   906    1
   680   905   907    1
   681   905   908    1
   682   909   910    1
   683   909   911    1
   684   909   912    1
   685   913   914    1
   686   913   915    1
   687   913   916    1
   688   917   918    1
   689   917   919    1
   690   917   920    1
   691   921   922    1
   692   921   923    1
   693   921   924    1
   694   925   926    1
   695   925   927    1
   696   925   928    1
   697   929   930    1
   698   929   931    1
   699   929   932    1
   700   933   934    1
   701   933   935    1
   702   933   936    1
   703   937   938    1
   704   937   939    1
   705   937   940    1
   706   941   942    1
   707   941   943    1
   708   941   944    1
   709   945   946    1
   710   945   947    1
   711   945   948    1
   712   949   950    1
   713   949   951    1
   714   949   952    1
   715   953   954    1
   716   953   955    1
   717   953   956    1
   718   957   958    1
   719   957   959    1
   720   957   960    1
   721   961   962    1
   722   961   963    1
   723   961   964    1
   724   965   966    1
   725   965   967    1
   726   965   968    1
   727   969   970    1
   728   969   971    1
   729   969   972    1
   730   973   974    1
   731   973   975    1
   732   973   976    1
   733   977   978    1
   734   977   979    1
   735   977   980    1
   736   981   982    1
   737   981   983    1
   738   981   984    1
   739   985   986    1
   740   985   987    1
   741   985   988    1
   742   989   990    1
   743   989   991    1
   744   989   992    1
   745   993   994    1
   746   993   995    1
   747   993   996    1
   748   997   998    1
   749   997   999    1
   750   997  1000    1
   751  1001  1002    1
   752  1001  1003    1
   753  1001  1004    1
   754  1005  1006    1
   755  1005  1007    1
   756  1005  1008    1
   757  1009  1010    1
   758  1009  1011    1
   759  1009  1012    1
   760  1013  1014    1
   761  1013  1015    1
   762  1013  1016    1
   763  1017  1018    1
   764  1017  1019    1
   765  1017  1020    1
   766  1021  1022    1
   767  1021  1023    1
   768  1021  1024    1
   769  1025  1026    1
   770  1025  1027    1
   771  1025  1028    1
   772  1029  1030    1
   773  1029  1031    1
   774  1029  1032    1
   775  1033  1034    1
   776  1033  1035    1
   777  1033  1036    1
   778  1037  1038    1
   779  1037  1039    1
   780  1037  1040    1
   781  1041  1042    1
   782  1041  1043    1
   783  1041  1044    1
   784  1045  1046    1
   785  1045  1047    1
   786  1045  1048    1
   787  1049  1050    1
   788  1049  1051    1
   789  1049  1052    1
   790  1053  1054    1
   791  1053  1055    1
   792  1053  1056    1
   793  1057  1058    1
   794  1057  1059    1
   795  1057  1060    1
   796  1061  1062    1
   797  1061  1063    1
   798  1061  1064    1
   799  1065  1066    1
   800  1065  1067    1
   801  1065  1068    1
   802  1069  1070    1
   803  1069  1071    1
   804  1069  1072    1
   805  1073  1074    1
   806  1073  1075    1
   807  1073  1076    1
   808  1077  1078    1
   809  1077  1079    1
   810  1077  1080    1
   811  1081  1082    1
   812  1081  1083    1
   813  1081  1084    1
   814  1085  1086    1
   815  1085  1087    1
   816  1085  1088    1
   817  1089  1090    1
   818  1089  1091    1
   819  1089  1092    1
   820  1093  1094    1
   821  1093  1095    1
   822  1093  1096    1
   823  1097  1098    1
   824  1097  1099    1
   825  1097  1100    1
   826  1101  1102    1
   827  1101  1103    1
   828  1101  1104    1
   829  1105  1106    1
   830  1105  1107    1
   831  1105  1108    1
   832  1109  1110    1
   833  1109  1111    1
   834  1109  1112    1
   835  1113  1114    1
   836  1113  1115    1
   837  1113  1116    1
   838  1117  1118    1
   839  1117  1119    1
   840  1117  1120    1
   841  1121  1122    1
   842  1121  1123    1
   843  1121  1124    1
   844  1125  1126    1
   845  1125  1127    1
   846  1125  1128    1
   847  1129  1130    1
   848  1129  1131    1
   849  1129  1132    1
   850  1133  1134    1
   851  1133  1135    1
   852  1133  1136    1
   853  1137  1138    1
   854  1137  1139    1
   855  1137  1140    1
   856  1141  1142    1
   857  1141  1143    1
   858  1141  1144    1
   859  1145  1146    1
   860  1145  1147    1
   861  1145  1148    1
   862  1149  1150    1
   863  1149  1151    1
   864  1149  1152    1
   865  1153  1154    1
   866  1153  1155    1
   867  1153  1156    1
   868  1157  1158    1
   869  1157  1159    1
   870  1157  1160    1
   871  1161  1162    1
   872  1161  1163    1
   873  1161  1164    1
   874  1165  1166    1
   875  1165  1167    1
   876  1165  1168    1
   877  1169  1170    1
   878  1169  1171    1
   879  1169  1172    1
   880  1173  1174    1
   881  1173  1175    1
   882  1173  1176    1
   883  1177  1178    1
   884  1177  1179    1
   885  1177  1180    1
   886  1181  1182    1
   887  1181  1183    1
   888  1181  1184    1
   889  1185  1186    1
   890  1185  1187    1
   891  1185  1188    1
   892  1189  1190    1
   893  1189  1191    1
   894  1189  1192    1
   895  1193  1194    1
   896  1193  1195    1
   897  1193  1196    1
   898  1197  1198    1
   899  1197  1199    1
   900  1197  1200    1
   901  1201  1202    1
   902  1201  1203    1
   903  1201  1204    1
   904  1205  1206    1
   905  1205  1207    1
   906  1205  1208    1
   907  1209  1210    1
   908  1209  1211    1
   909  1209  1212    1
   910  1213  1214    1
   911  1213  1215    1
   912  1213  1216    1
   913  1217  1218    1
   914  1217  1219    1
   915  1217  1220    1
   916  1221  1222    1
   917  1221  1223    1
   918  1221  1224    1
   919  1225  1226    1
   920  1225  1227    1
   921  1225  1228    1
   922  1229  1230    1
   923  1229  1231    1
   924  1229  1232    1
   925  1233  1234    1
   926  1233  1235    1
   927  1233  1236    1
   928  1237  1238    1
   929  1237  1239    1
   930  1237  1240    1
   931  1241  1242    1
   932  1241  1243    1
   933  1241  1244    1
   934  1245  1246    1
   935  1245  1247    1
   936  1245  1248    1
   937  1249  1250    1
   938  1249  1251    1
   939  1249  1252    1
   940  1253  1254    1
   941  1253  1255    1
   942  1253  1256    1
   943  1257  1258    1
   944  1257  1259    1
   945  1257  1260    1
   946  1261  1262    1
   947  1261  1263    1
   948  1261  1264    1
   949  1265  1266    1
   950  1265  1267    1
   951  1265  1268    1
   952  1269  1270    1
   953  1269  1271    1
   954  1269  1272    1
   955  1273  1274    1
   956  1273  1275    1
   957  1273  1276    1
   958  1277  1278    1
   959  1277  1279    1
   960  1277  1280    1
   961  1281  1282    1
   962  1281  1283    1
   963  1281  1284    1
   964  1285  1286    1
   965  1285  1287    1
   966  1285  1288    1
   967  1289  1290    1
   968  1289  1291    1
   969  1289  1292    1
   970  1293  1294    1
   971  1293  1295    1
   972  1293  1296    1
   973  1297  1298    1
   974  1297  1299    1
   975  1297  1300    1
   976  1301  1302    1
   977  1301  1303    1
   978  1301  1304    1
   979  1305  1306    1
   980  1305  1307    1
   981  1305  1308    1
   982  1309  1310    1
   983  1309  1311    1
   984  1309  1312    1
   985  1313  1314    1
   986  1313  1315    1
   987  1313  1316    1
   988  1317  1318    1
   989  1317  1319    1
   990  1317  1320    1
   991  1321  1322    1
   992  1321  1323    1
   993  1321  1324    1
   994  1325  1326    1
   995  1325  1327    1
   996  1325  1328    1
   997  1329  1330    1
   998  1329  1331    1
   999  1329  1332    1
  1000  1333  1334    1
  1001  1333  1335    1
  1002  1333  1336    1
  1003  1337  1338    1
  1004  1337  1339    1
  1005  1337  1340    1
  1006  1341  1342    1
  1007  1341  1343    1
  1008  1341  1344    1
  1009  1345  1346    1
  1010  1345  1347    1
  1011  1345  1348    1
  1012  1349  1350    1
  1013  1349  1351    1
  1014  1349  1352    1
  1015  1353  1354    1
  1016  1353  1355    1
  1017  1353  1356    1
  1018  1357  1358    1
  1019  1357  1359    1
  1020  1357  1360    1
  1021  1361  1362    1
  1022  1361  1363    1
  1023  1361  1364    1
  1024  1365  1366    1
  1025  1365  1367    1
  1026  1365  1368    1
  1027  1369  1370    1
  1028  1369  1371    1
  1029  1369  1372    1
  1030  1373  1374    1
  1031  1373  1375    1
  1032  1373  1376    1
  1033  1377  1378    1
  1034  1377  1379    1
  1035  1377  1380    1
  1036  1381  1382    1
  1037  1381  1383    1
  1038  1381  1384    1
  1039  1385  1386    1
  1040  1385  1387    1
  1041  1385  1388    1
  1042  1389  1390    1
  1043  1389  1391    1
  1044  1389  1392    1
  1045  1393  1394    1
  1046  1393  1395    1
  1047  1393  1396    1
  1048  1397  1398    1
  1049  1397  1399    1
  1050  1397  1400    1
  1051  1401  1402    1
  1052  1401  1403    1
  1053  1401  1404    1
  1054  1405  1406    1
  1055  1405  1407    1
  1056  1405  1408    1
  1057  1409  1410    1
  1058  1409  1411    1
  1059  1409  1412    1
  1060  1413  1414    1
  1061  1413  1415    1
  1062  1413  1416    1
  1063  1417  1418    1
  1064  1417  1419    1
  1065  1417  1420    1
  1066  1421  1422    1
  1067  1421  1423    1
  1068  1421  1424    1
  1069  1425  1426    1
  1070  1425  1427    1
  1071  1425  1428    1
  1072  1429  1430    1
  1073  1429  1431    1
  1074  1429  1432    1
  1075  1433  1434    1
  1076  1433  1435    1
  1077  1433  1436    1
  1078  1437  1438    1
  1079  1437  1439    1
  1080  1437  1440    1
  1081  1441  1442    1
  1082  1441  1443    1
  1083  1441  1444    1
  1084  1445  1446    1
  1085  1445  1447    1
  1086  1445  1448    1
  1087  1449  1450    1
  1088  1449  1451    1
  1089  1449  1452    1
  1090  1453  1454    1
  1091  1453  1455    1
  1092  1453  1456    1
  1093  1457  1458    1
  1094  1457  1459    1
  1095  1457  1460    1
  1096  1461  1462    1
  1097  1461  1463    1
  1098  1461  1464    1
  1099  1465  1466    1
  1100  1465  1467    1
  1101  1465  1468    1
  1102  1469  1470    1
  1103  1469  1471    1
  1104  1469  1472    1
  1105  1473  1474    1
  1106  1473  1475    1
  1107  1473  1476    1
  1108  1477  1478    1
  1109  1477  1479    1
  1110  1477  1480    1
  1111  1481  1482    1
  1112  1481  1483    1
  1113  1481  1484    1
  1114  1485  1486    1
  1115  1485  1487    1
  1116  1485  1488    1
  1117  1489  1490    1
  1118  1489  1491    1
  1119  1489  1492    1
  1120  1493  1494    1
  1121  1493  1495    1
  1122  1493  1496    1
  1123  1497  1498    1
  1124  1497  1499    1
  1125  1497  1500    1
  1126  1501  1502    1
  1127  1501  1503    1
  1128  1501  1504    1
  1129  1505  1506    1
  1130  1505  1507    1
  1131  1505  1508    1
  1132  1509  1510    1
  1133  1509  1511    1
  1134  1509  1512    1
  1135  1513  1514    1
  1136  1513  1515    1
  1137  1513  1516    1
  1138  1517  1518    1
  1139  1517  1519    1
  1140  1517  1520    1
  1141  1521  1522    1
  1142  1521  1523    1
  1143  1521  1524    1
  1144  1525  1526    1
  1145  1525  1527    1
  1146  1525  1528    1
  1147  1529  1530    1
  1148  1529  1531    1
  1149  1529  1532    1
  1150  1533  1534    1
  1151  1533  1535    1
  1152  1533  1536    1
  1153  1537  1538    1
  1154  1537  1539    1
  1155  1537  1540    1
  1156  1541  1542    1
  1157  1541  1543    1
  1158  1541  1544    1
  1159  1545  1546    1
  1160  1545  1547    1
  1161  1545  1548    1
  1162  1549  1550    1
  1163  1549  1551    1
  1164  1549  1552    1
  1165  1553  1554    1
  1166  1553  1555    1
  1167  1553  1556    1
  1168  1557  1558    1
  1169  1557  1559    1
  1170  1557  1560    1
  1171  1561  1562    1
  1172  1561  1563    1
  1173  1561  1564    1
  1174  1565  1566    1
  1175  1565  1567    1
  1176  1565  1568    1
  1177  1569  1570    1
  1178  1569  1571    1
  1179  1569  1572    1
  1180  1573  1574    1
  1181  1573  1575    1
  1182  1573  1576    1
  1183  1577  1578    1
  1184  1577  1579    1
  1185  1577  1580    1
  1186  1581  1582    1
  1187  1581  1583    1
  1188  1581  1584    1
  1189  1585  1586    1
  1190  1585  1587    1
  1191  1585  1588    1
  1192  1589  1590    1
  1193  1589  1591    1
  1194  1589  1592    1
  1195  1593  1594    1
  1196  1593  1595    1
  1197  1593  1596    1
  1198  1597  1598    1
  1199  1597  1599    1
  1200  1597  1600    1
  1201  1601  1602    1
  1202  1601  1603    1
  1203  1601  1604    1
  1204  1605  1606    1
  1205  1605  1607    1
  1206  1605  1608    1
  1207  1609  1610    1
  1208  1609  1611    1
  1209  1609  1612    1
  1210  1613  1614    1
  1211  1613  1615    1
  1212  1613  1616    1
  1213  1617  1618    1
  1214  1617  1619    1
  1215  1617  1620    1
  1216  1621  1622    1
  1217  1621  1623    1
  1218  1621  1624    1
  1219  1625  1626    1
  1220  1625  1627    1
  1221  1625  1628    1
  1222  1629  1630    1
  1223  1629  1631    1
  1224  1629  1632    1
  1225  1633  1634    1
  1226  1633  1635    1
  1227  1633  1636    1
  1228  1637  1638    1
  1229  1637  1639    1
  1230  1637  1640    1
  1231  1641  1642    1
  1232  1641  1643    1
  1233  1641  1644    1
  1234  1645  1646    1
  1235  1645  1647    1
  1236  1645  1648    1
  1237  1649  1650    1
  1238  1649  1651    1
  1239  1649  1652    1
  1240  1653  1654    1
  1241  1653  1655    1
  1242  1653  1656    1
  1243  1657  1658    1
  1244  1657  1659    1
  1245  1657  1660    1
  1246  1661  1662    1
  1247  1661  1663    1
  1248  1661  1664    1
  1249  1665  1666    1
  1250  1665  1667    1
  1251  1665  1668    1
  1252  1669  1670    1
  1253  1669  1671    1
  1254  1669  1672    1
  1255  1673  1674    1
  1256  1673  1675    1
  1257  1673  1676    1
  1258  1677  1678    1
  1259  1677  1679    1
  1260  1677  1680    1
  1261  1681  1682    1
  1262  1681  1683    1
  1263  1681  1684    1
  1264  1685  1686    1
  1265  1685  1687    1
  1266  1685  1688    1
  1267  1689  1690    1
  1268  1689  1691    1
  1269  1689  1692    1
  1270  1693  1694    1
  1271  1693  1695    1
  1272  1693  1696    1
  1273  1697  1698    1
  1274  1697  1699    1
  1275  1697  1700    1
  1276  1701  1702    1
  1277  1701  1703    1
  1278  1701  1704    1
  1279  1705  1706    1
  1280  1705  1707    1
  1281  1705  1708    1
  1282  1709  1710    1
  1283  1709  1711    1
  1284  1709  1712    1
  1285  1713  1714    1
  1286  1713  1715    1
  1287  1713  1716    1
  1288  1717  1718    1
  1289  1717  1719    1
  1290  1717  1720    1
  1291  1721  1722    1
  1292  1721  1723    1
  1293  1721  1724    1
  1294  1725  1726    1
  1295  1725  1727    1
  1296  1725  1728    1
  1297  1729  1730    1
  1298  1729  1731    1
  1299  1729  1732    1
  1300  1733  1734    1
  1301  1733  1735    1
  1302  1733  1736    1
  1303  1737  1738    1
  1304  1737  1739    1
  1305  1737  1740    1
  1306  1741  1742    1
  1307  1741  1743    1
  1308  1741  1744    1
  1309  1745  1746    1
  1310  1745  1747    1
  1311  1745  1748    1
  1312  1749  1750    1
  1313  1749  1751    1
  1314  1749  1752    1
  1315  1753  1754    1
  1316  1753  1755    1
  1317  1753  1756    1
  1318  1757  1758    1
  1319  1757  1759    1
  1320  1757  1760    1
  1321  1761  1762    1
  1322  1761  1763    1
  1323  1761  1764    1
  1324  1765  1766    1
  1325  1765  1767    1
  1326  1765  1768    1
  1327  1769  1770    1
  1328  1769  1771    1
  1329  1769  1772    1
