@<TRIPOS>MOLECULE
*****
 3816 2862 0 0 0
SMALL
GASTEIGER

@<TRIPOS>ATOM
      1 N           0.5064   -0.2944    2.0117 N.3     1  UNL1       -0.3437
      2 H           1.1887    0.2784    2.5064 H       1  UNL1        0.1146
      3 H           0.6824   -0.1464    1.0190 H       1  UNL1        0.1146
      4 H           0.7625   -1.2624    2.2009 H       1  UNL1        0.1146
      5 N           0.0897   -0.1561   10.7028 N.3     2  UNL2       -0.3437
      6 H           0.9210    0.2686   10.2942 H       2  UNL2        0.1146
      7 H          -0.2941   -0.7692    9.9850 H       2  UNL2        0.1146
      8 H           0.4233   -0.7682   11.4459 H       2  UNL2        0.1146
      9 N          -0.2829   -0.2702   13.5796 N.3     3  UNL3       -0.3437
     10 H          -0.7246   -0.7834   12.8181 H       3  UNL3        0.1146
     11 H           0.4427   -0.8835   13.9480 H       3  UNL3        0.1146
     12 H           0.2046    0.5122   13.1454 H       3  UNL3        0.1146
     13 N          -0.7313   -0.4195   16.4011 N.3     4  UNL4       -0.3437
     14 H          -0.7809   -1.0111   17.2293 H       4  UNL4        0.1146
     15 H          -0.2192    0.4154   16.6825 H       4  UNL4        0.1146
     16 H          -0.1286   -0.9096   15.7416 H       4  UNL4        0.1146
     17 N           0.4671    0.3405   22.3130 N.3     5  UNL5       -0.3437
     18 H           0.0254   -0.3630   22.9033 H       5  UNL5        0.1146
     19 H           1.1927    0.7711   22.8844 H       5  UNL5        0.1146
     20 H           0.9546   -0.1734   21.5805 H       5  UNL5        0.1146
     21 N           0.5481    2.2009    0.0297 N.3     6  UNL6       -0.3437
     22 H           1.2807    1.5540   -0.2588 H       6  UNL6        0.1146
     23 H           0.9823    2.8377    0.6963 H       6  UNL6        0.1146
     24 H           0.3288    2.7616   -0.7924 H       6  UNL6        0.1146
     25 N          -0.2589    2.5697    2.3941 N.3     7  UNL7       -0.3437
     26 H           0.5236    2.1475    2.8919 H       7  UNL7        0.1146
     27 H          -0.6798    1.8210    1.8457 H       7  UNL7        0.1146
     28 H          -0.9449    2.8160    3.1062 H       7  UNL7        0.1146
     29 N           0.7358    1.7975    5.1910 N.3     8  UNL8       -0.3437
     30 H           0.2709    1.2544    4.4648 H       8  UNL8        0.1146
     31 H           1.0561    1.1231    5.8845 H       8  UNL8        0.1146
     32 H           1.5771    2.1792    4.7610 H       8  UNL8        0.1146
     33 N           0.4471    2.4810    7.7729 N.3     9  UNL9       -0.3437
     34 H          -0.1004    2.0079    7.0554 H       9  UNL9        0.1146
     35 H           0.0155    3.3956    7.8981 H       9  UNL9        0.1146
     36 H           0.2778    1.9698    8.6381 H       9  UNL9        0.1146
     37 N          -0.5227    3.1506   10.6199 N.3    10  UNL10      -0.3437
     38 H          -0.7240    3.0651    9.6246 H      10  UNL10       0.1146
     39 H          -0.5675    2.2053   10.9978 H      10  UNL10       0.1146
     40 H           0.4541    3.4332   10.6856 H      10  UNL10       0.1146
     41 N           0.5076    2.6581   12.6292 N.3    11  UNL11      -0.3437
     42 H           0.9677    3.4642   13.0498 H      11  UNL11       0.1146
     43 H           1.2432    1.9754   12.4526 H      11  UNL11       0.1146
     44 H          -0.0786    2.2566   13.3596 H      11  UNL11       0.1146
     45 N           1.1718    2.0303   15.8878 N.3    12  UNL12      -0.3437
     46 H           0.8739    1.3044   15.2377 H      12  UNL12       0.1146
     47 H           1.1722    2.9001   15.3568 H      12  UNL12       0.1146
     48 H           0.4220    2.1195   16.5721 H      12  UNL12       0.1146
     49 N          -0.0329    1.0468   19.4468 N.3    13  UNL13      -0.3437
     50 H          -0.4746    0.2769   19.9473 H      13  UNL13       0.1146
     51 H           0.6927    1.4049   20.0663 H      13  UNL13       0.1146
     52 H           0.4546    0.6256   18.6573 H      13  UNL13       0.1146
     53 N           0.0948    3.2449   21.9832 N.3    14  UNL14      -0.3437
     54 H           1.0852    3.1037   21.7897 H      14  UNL14       0.1146
     55 H          -0.4035    2.8984   21.1646 H      14  UNL14       0.1146
     56 H          -0.1366    2.6072   22.7435 H      14  UNL14       0.1146
     57 N           0.3778    5.6026    2.2413 N.3    15  UNL15      -0.3437
     58 H           0.7526    6.4072    1.7408 H      15  UNL15       0.1146
     59 H           0.9974    4.8232    2.0240 H      15  UNL15       0.1146
     60 H           0.5122    5.8004    3.2318 H      15  UNL15       0.1146
     61 N           0.5164    4.2880    5.2279 N.3    16  UNL16      -0.3437
     62 H           1.1897    3.9048    5.8898 H      16  UNL16       0.1146
     63 H           0.5144    5.2955    5.3807 H      16  UNL16       0.1146
     64 H           0.9194    4.1451    4.3029 H      16  UNL16       0.1146
     65 N           0.0921    5.9779    7.8271 N.3    17  UNL17      -0.3437
     66 H          -0.3496    5.1061    7.5386 H      17  UNL17       0.1146
     67 H           0.8177    5.7180    8.4937 H      17  UNL17       0.1146
     68 H           0.5796    6.3313    7.0050 H      17  UNL17       0.1146
     69 N          -0.5205    5.5272   11.3895 N.3    18  UNL18      -0.3437
     70 H          -0.1726    5.7331   10.4542 H      18  UNL18       0.1146
     71 H          -1.3468    4.9450   11.2601 H      18  UNL18       0.1146
     72 H           0.1799    4.9280   11.8241 H      18  UNL18       0.1146
     73 N           0.5921    5.0999   14.5891 N.3    19  UNL19      -0.3437
     74 H           0.1504    5.1597   13.6727 H      19  UNL19       0.1146
     75 H           1.3177    4.3893   14.5053 H      19  UNL19       0.1146
     76 H           1.0796    5.9845   14.7241 H      19  UNL19       0.1146
     77 N          -0.2552    5.4332   16.7620 N.3    20  UNL20      -0.3437
     78 H          -0.6217    5.9243   17.5762 H      20  UNL20       0.1146
     79 H           0.7279    5.2539   16.9613 H      20  UNL20       0.1146
     80 H          -0.7110    4.5219   16.7550 H      20  UNL20       0.1146
     81 N          -0.3619    3.4049   18.6698 N.3    21  UNL21      -0.3437
     82 H          -0.7543    4.3452   18.6534 H      21  UNL21       0.1146
     83 H          -0.8467    2.8855   17.9393 H      21  UNL21       0.1146
     84 H           0.6029    3.4977   18.3552 H      21  UNL21       0.1146
     85 N           0.5134    5.5047   19.9861 N.3    22  UNL22      -0.3437
     86 H           0.6972    4.5689   20.3450 H      22  UNL22       0.1146
     87 H           1.2464    6.1009   20.3677 H      22  UNL22       0.1146
     88 H           0.6829    5.4589   18.9823 H      22  UNL22       0.1146
     89 N           0.6774    8.1277    0.1929 N.3    23  UNL23      -0.3437
     90 H           1.4847    8.7280    0.0312 H      23  UNL23       0.1146
     91 H          -0.0050    8.3759   -0.5221 H      23  UNL23       0.1146
     92 H           0.9829    7.1808   -0.0273 H      23  UNL23       0.1146
     93 N           0.0269    8.3042    5.5418 N.3    24  UNL24      -0.3437
     94 H          -0.4907    7.4570    5.7714 H      24  UNL24       0.1146
     95 H           0.9745    8.0029    5.3191 H      24  UNL24       0.1146
     96 H          -0.3707    8.6483    4.6689 H      24  UNL24       0.1146
     97 N           0.9671    9.0477    8.2021 N.3    25  UNL25      -0.3437
     98 H           0.5254    8.1759    7.9136 H      25  UNL25       0.1146
     99 H           1.6927    8.7878    8.8687 H      25  UNL25       0.1146
    100 H           1.4546    9.4011    7.3800 H      25  UNL25       0.1146
    101 N           0.4955    7.9859   10.6661 N.3    26  UNL26      -0.3437
    102 H           0.6925    7.7734    9.6892 H      26  UNL26       0.1146
    103 H           0.9906    7.2821   11.2120 H      26  UNL26       0.1146
    104 H           0.9614    8.8710   10.8605 H      26  UNL26       0.1146
    105 N           0.2171    7.5255   13.4579 N.3    27  UNL27      -0.3437
    106 H          -0.2246    7.6673   12.5507 H      27  UNL27       0.1146
    107 H           0.9427    6.8253   13.3107 H      27  UNL27       0.1146
    108 H           0.7046    8.3944   13.6719 H      27  UNL27       0.1146
    109 N           0.5509    8.7373   15.9020 N.3    28  UNL28      -0.3437
    110 H           1.0946    9.3581   16.4998 H      28  UNL28       0.1146
    111 H           0.2927    9.2890   15.0851 H      28  UNL28       0.1146
    112 H           1.2018    8.0282   15.5676 H      28  UNL28       0.1146
    113 N           0.5774    7.7338   21.0829 N.3    29  UNL29      -0.3437
    114 H           0.1690    7.0351   21.7022 H      29  UNL29       0.1146
    115 H          -0.2045    8.2722   20.7126 H      29  UNL29       0.1146
    116 H           1.0980    8.3714   21.6834 H      29  UNL29       0.1146
    117 N          -0.0329   10.8775    1.0800 N.3    30  UNL30      -0.3437
    118 H          -0.4746   11.4444    0.3575 H      30  UNL30       0.1146
    119 H           0.6927   10.3384    0.6095 H      30  UNL30       0.1146
    120 H           0.4546   11.5312    1.6910 H      30  UNL30       0.1146
    121 N           0.3113   10.6119    4.2529 N.3    31  UNL31      -0.3437
    122 H           1.1956   10.1305    4.0960 H      31  UNL31       0.1146
    123 H           0.4762   11.2581    5.0234 H      31  UNL31       0.1146
    124 H           0.1568   11.1911    3.4289 H      31  UNL31       0.1146
    125 N           1.1086   11.1590    7.9521 N.3    32  UNL32      -0.3437
    126 H           1.9191   11.7052    7.6636 H      32  UNL32       0.1146
    127 H           0.6016   11.7395    8.6187 H      32  UNL32       0.1146
    128 H           0.5107   11.0879    7.1300 H      32  UNL32       0.1146
    129 N           0.3421   10.7425   13.3588 N.3    33  UNL33      -0.3437
    130 H          -0.0996    9.8707   13.0703 H      33  UNL33       0.1146
    131 H           1.0677   10.4826   14.0254 H      33  UNL33       0.1146
    132 H           0.8296   11.0958   12.5367 H      33  UNL33       0.1146
    133 N           0.5921   11.7425   16.1246 N.3    34  UNL34      -0.3437
    134 H           0.1504   10.8707   15.8361 H      34  UNL34       0.1146
    135 H           1.3177   11.4826   16.7912 H      34  UNL34       0.1146
    136 H           1.0796   12.0958   15.3025 H      34  UNL34       0.1146
    137 N          -0.3324   11.1362   18.6445 N.3    35  UNL35      -0.3437
    138 H          -0.2312   10.3409   18.0154 H      35  UNL35       0.1146
    139 H          -0.7929   11.8661   18.1026 H      35  UNL35       0.1146
    140 H          -1.0035   10.8484   19.3552 H      35  UNL35       0.1146
    141 N           0.8999   11.2311   21.4267 N.3    36  UNL36      -0.3437
    142 H           1.6831   11.8565   21.2431 H      36  UNL36       0.1146
    143 H           0.2773   11.3177   20.6246 H      36  UNL36       0.1146
    144 H           1.2796   10.2863   21.3866 H      36  UNL36       0.1146
    145 N           0.0208   13.7650   -0.2161 N.3    37  UNL37      -0.3437
    146 H           0.5325   14.6109    0.0308 H      37  UNL37       0.1146
    147 H           0.7034   13.0086   -0.1984 H      37  UNL37       0.1146
    148 H          -0.6167   13.5862    0.5584 H      37  UNL37       0.1146
    149 N           0.5921   13.6740    2.2972 N.3    38  UNL38      -0.3437
    150 H           0.1504   14.3609    1.6877 H      38  UNL38       0.1146
    151 H           1.3177   13.2277    1.7379 H      38  UNL38       0.1146
    152 H           1.0796   14.2080    3.0152 H      38  UNL38       0.1146
    153 N           0.2504   13.7463    4.8080 N.3    39  UNL39      -0.3437
    154 H           1.2230   13.7599    5.1116 H      39  UNL39       0.1146
    155 H          -0.2640   13.2514    5.5353 H      39  UNL39       0.1146
    156 H          -0.0694   14.7131    4.8464 H      39  UNL39       0.1146
    157 N           0.5921   13.4008    7.5351 N.3    40  UNL40      -0.3437
    158 H           0.1504   14.3177    7.5848 H      40  UNL40       0.1146
    159 H           1.3177   13.4767    6.8236 H      40  UNL40       0.1146
    160 H           1.0796   13.2755    8.4211 H      40  UNL40       0.1146
    161 N           0.3586   13.7288   10.4680 N.3    41  UNL41      -0.3437
    162 H           1.1691   14.2749   10.1795 H      41  UNL41       0.1146
    163 H          -0.1484   14.3093   11.1346 H      41  UNL41       0.1146
    164 H          -0.2393   13.6577    9.6459 H      41  UNL41       0.1146
    165 N           0.3293   13.4511   18.7598 N.3    42  UNL42      -0.3437
    166 H          -0.6151   13.6866   19.0612 H      42  UNL42       0.1146
    167 H           0.4690   13.9317   17.8722 H      42  UNL42       0.1146
    168 H           0.9568   13.9013   19.4246 H      42  UNL42       0.1146
    169 N           0.3834   14.1072   21.8167 N.3    43  UNL43      -0.3437
    170 H           0.5211   13.5136   22.6334 H      43  UNL43       0.1146
    171 H           0.6625   15.0451   22.1008 H      43  UNL43       0.1146
    172 H           1.0731   13.8048   21.1302 H      43  UNL43       0.1146
    173 N           0.6807   16.7266    1.1406 N.3    44  UNL44      -0.3437
    174 H          -0.2594   17.1123    1.0647 H      44  UNL44       0.1146
    175 H           0.9233   16.3923    0.2091 H      44  UNL44       0.1146
    176 H           1.2953   17.5186    1.3236 H      44  UNL44       0.1146
    177 N          -0.1109   16.7796    3.5653 N.3    45  UNL45      -0.3437
    178 H           0.4342   17.5205    3.1269 H      45  UNL45       0.1146
    179 H          -0.7311   16.4207    2.8408 H      45  UNL45       0.1146
    180 H           0.5477   16.0289    3.7683 H      45  UNL45       0.1146
    181 N           0.9002   16.3675    5.9687 N.3    46  UNL46      -0.3437
    182 H           0.8291   17.1398    6.6296 H      46  UNL46       0.1146
    183 H           1.5971   16.6498    5.2808 H      46  UNL46       0.1146
    184 H           1.3136   15.5927    6.4855 H      46  UNL46       0.1146
    185 N           0.2171   16.1032    8.8145 N.3    47  UNL47      -0.3437
    186 H          -0.2246   16.2738    7.9122 H      47  UNL47       0.1146
    187 H           0.9427   15.4080    8.6451 H      47  UNL47       0.1146
    188 H           0.7046   16.9648    9.0560 H      47  UNL47       0.1146
    189 N           0.2171   16.6032   11.5804 N.3    48  UNL48      -0.3437
    190 H          -0.2246   16.7738   10.6781 H      48  UNL48       0.1146
    191 H           0.9427   15.9080   11.4109 H      48  UNL48       0.1146
    192 H           0.7046   17.4648   11.8218 H      48  UNL48       0.1146
    193 N           0.4671   16.6599   13.9163 N.3    49  UNL49      -0.3437
    194 H           0.0254   16.9505   14.7874 H      49  UNL49       0.1146
    195 H           1.1927   17.3495   13.7256 H      49  UNL49       0.1146
    196 H           0.9546   15.7898   14.1252 H      49  UNL49       0.1146
    197 N           0.4336   16.3182   16.9174 N.3    50  UNL50      -0.3437
    198 H           1.0092   16.9763   16.3940 H      50  UNL50       0.1146
    199 H           0.1321   15.6132   16.2463 H      50  UNL50       0.1146
    200 H           1.0651   15.8421   17.5601 H      50  UNL50       0.1146
    201 N           0.5764   15.9449   19.8910 N.3    51  UNL51      -0.3437
    202 H          -0.4215   15.7480   19.8290 H      51  UNL51       0.1146
    203 H           0.7697   16.6444   19.1756 H      51  UNL51       0.1146
    204 H           0.7154   16.4125   20.7856 H      51  UNL51       0.1146
    205 N           0.4671   19.4964   -0.1490 N.3    52  UNL52      -0.3437
    206 H           0.0254   19.1935    0.7178 H      52  UNL52       0.1146
    207 H           1.1927   20.1586    0.1219 H      52  UNL52       0.1146
    208 H           0.9546   18.6803   -0.5160 H      52  UNL52       0.1146
    209 N           0.3227   19.3471    5.4467 N.3    53  UNL53      -0.3437
    210 H          -0.2767   19.6836    4.6944 H      53  UNL53       0.1146
    211 H          -0.2962   18.8945    6.1178 H      53  UNL53       0.1146
    212 H           0.8902   18.6036    5.0424 H      53  UNL53       0.1146
    213 N           0.7171   19.5133    7.6595 N.3    54  UNL54      -0.3437
    214 H           0.2754   19.1337    8.4957 H      54  UNL54       0.1146
    215 H           1.4427   20.1485    7.9888 H      54  UNL54       0.1146
    216 H           1.2046   18.7334    7.2207 H      54  UNL54       0.1146
    217 N          -0.8133   18.9797   11.3322 N.3    55  UNL55      -0.3437
    218 H          -0.8519   19.2703   10.3563 H      55  UNL55       0.1146
    219 H          -1.3540   19.6693   11.8522 H      55  UNL55       0.1146
    220 H          -1.3408   18.1096   11.3872 H      55  UNL55       0.1146
    221 N           0.5659   19.9182   12.9560 N.3    56  UNL56      -0.3437
    222 H           0.7329   18.9583   13.2546 H      56  UNL56       0.1146
    223 H          -0.3684   20.1564   13.2857 H      56  UNL56       0.1146
    224 H           1.2096   20.4959   13.4949 H      56  UNL56       0.1146
    225 N          -0.9027   19.1713   15.1509 N.3    57  UNL57      -0.3437
    226 H           0.0595   18.8360   15.1556 H      57  UNL57       0.1146
    227 H          -1.4897   18.3415   15.2229 H      57  UNL57       0.1146
    228 H          -1.0271   19.6800   16.0251 H      57  UNL57       0.1146
    229 N          -0.3784   18.9495   18.2501 N.3    58  UNL58      -0.3437
    230 H          -0.1674   19.9445   18.1881 H      58  UNL58       0.1146
    231 H           0.1889   18.4969   17.5347 H      58  UNL58       0.1146
    232 H          -0.0030   18.6380   19.1448 H      58  UNL58       0.1146
    233 N          -0.3720   19.6314   21.4565 N.3    59  UNL59      -0.3437
    234 H          -0.2743   19.7978   22.4571 H      59  UNL59       0.1146
    235 H           0.1840   20.3510   20.9965 H      59  UNL59       0.1146
    236 H           0.1023   18.7488   21.2709 H      59  UNL59       0.1146
    237 N           0.4312   21.9515    1.4206 N.3    60  UNL60      -0.3437
    238 H           0.2358   22.1514    2.4005 H      60  UNL60       0.1146
    239 H           0.7077   22.8388    1.0026 H      60  UNL60       0.1146
    240 H           1.2653   21.3662    1.4143 H      60  UNL60       0.1146
    241 N           0.2171   22.5352    4.9927 N.3    61  UNL61      -0.3437
    242 H          -0.2246   21.7653    5.4932 H      61  UNL61       0.1146
    243 H           0.9427   22.8934    5.6121 H      61  UNL61       0.1146
    244 H           0.7046   22.1141    4.2032 H      61  UNL61       0.1146
    245 N           0.4671   23.0495    7.7438 N.3    62  UNL62      -0.3437
    246 H           0.0254   23.3401    8.6149 H      62  UNL62       0.1146
    247 H           1.1927   23.7391    7.5531 H      62  UNL62       0.1146
    248 H           0.9546   22.1794    7.9527 H      62  UNL62       0.1146
    249 N           0.5921   22.0216   10.7180 N.3    63  UNL63      -0.3437
    250 H           0.1504   21.1498   10.4295 H      63  UNL63       0.1146
    251 H           1.3177   21.7617   11.3846 H      63  UNL63       0.1146
    252 H           1.0796   22.3749    9.8959 H      63  UNL63       0.1146
    253 N           0.4395   23.0216   13.2176 N.3    64  UNL64      -0.3437
    254 H           0.2666   22.1498   12.7192 H      64  UNL64       0.1146
    255 H           0.6058   22.7617   14.1888 H      64  UNL64       0.1146
    256 H           1.3281   23.3749   12.8655 H      64  UNL64       0.1146
    257 N           0.4671   22.2098   16.6125 N.3    65  UNL65      -0.3437
    258 H           0.0254   21.9973   15.7191 H      65  UNL65       0.1146
    259 H           1.1927   21.5060   16.7415 H      65  UNL65       0.1146
    260 H           0.9546   23.0949   16.4813 H      65  UNL65       0.1146
    261 N           0.1511   22.9673   19.1799 N.3    66  UNL66      -0.3437
    262 H           0.7371   23.0680   20.0075 H      66  UNL66       0.1146
    263 H           0.7087   23.3077   18.3979 H      66  UNL66       0.1146
    264 H           0.0431   21.9649   19.0325 H      66  UNL66       0.1146
    265 N           0.5084   22.3165   22.0667 N.3    67  UNL67      -0.3437
    266 H           0.6461   21.7229   22.8834 H      67  UNL67       0.1146
    267 H           0.7875   23.2544   22.3508 H      67  UNL67       0.1146
    268 H           1.1981   22.0141   21.3802 H      67  UNL67       0.1146
    269 N          -1.0055   24.2789    0.4729 N.3    68  UNL68      -0.3437
    270 H          -0.4963   25.0186    0.9545 H      68  UNL68       0.1146
    271 H          -0.7866   24.3855   -0.5166 H      68  UNL68       0.1146
    272 H          -0.5716   23.4040    0.7638 H      68  UNL68       0.1146
    273 N           0.8870   24.5513    2.6527 N.3    69  UNL69      -0.3437
    274 H           1.5037   24.4539    1.8474 H      69  UNL69       0.1146
    275 H          -0.0084   24.1551    2.3705 H      69  UNL69       0.1146
    276 H           1.2577   23.9267    3.3674 H      69  UNL69       0.1146
    277 N          -0.0329   25.3414    5.3113 N.3    70  UNL70      -0.3437
    278 H          -0.4746   24.4696    5.0228 H      70  UNL70       0.1146
    279 H           0.6927   25.0814    5.9779 H      70  UNL70       0.1146
    280 H           0.4546   25.6947    4.4892 H      70  UNL70       0.1146
    281 N          -0.4923   25.7302    8.1515 N.3    71  UNL71      -0.3437
    282 H          -1.1070   26.1022    7.4290 H      71  UNL71       0.1146
    283 H          -1.0237   25.0002    8.6239 H      71  UNL71       0.1146
    284 H           0.2630   25.2544    7.6601 H      71  UNL71       0.1146
    285 N           0.4671   24.9947   10.8085 N.3    72  UNL72      -0.3437
    286 H           0.0254   24.4381   10.0780 H      72  UNL72       0.1146
    287 H           1.1927   24.4037   11.2118 H      72  UNL72       0.1146
    288 H           0.9546   25.7506   10.3296 H      72  UNL72       0.1146
    289 N           0.5921   25.5291   13.3035 N.3    73  UNL73      -0.3437
    290 H           0.1504   24.8510   12.6844 H      73  UNL73       0.1146
    291 H           1.3177   25.0198   13.8060 H      73  UNL73       0.1146
    292 H           1.0796   26.1872   12.6972 H      73  UNL73       0.1146
    293 N           0.8844   25.5992   15.7022 N.3    74  UNL74      -0.3437
    294 H           0.2979   24.7760   15.8309 H      74  UNL74       0.1146
    295 H           0.2612   26.3417   15.3878 H      74  UNL74       0.1146
    296 H           1.1965   25.8702   16.6336 H      74  UNL74       0.1146
    297 N           0.2981   26.1779   19.8624 N.3    75  UNL75      -0.3437
    298 H           1.0307   26.1668   20.5707 H      75  UNL75       0.1146
    299 H           0.7323   26.5407   19.0149 H      75  UNL75       0.1146
    300 H           0.0788   25.2016   19.6698 H      75  UNL75       0.1146
    301 N           0.8337   28.6697   -1.2372 N.3    76  UNL76      -0.3437
    302 H           0.3075   27.8009   -1.1555 H      76  UNL76       0.1146
    303 H           0.3031   29.3692   -0.7200 H      76  UNL76       0.1146
    304 H           1.6956   28.5265   -0.7127 H      76  UNL76       0.1146
    305 N           0.6465   28.0973    1.4052 N.3    77  UNL77      -0.3437
    306 H           1.4220   28.7554    1.3432 H      77  UNL77       0.1146
    307 H           0.8185   27.3923    0.6898 H      77  UNL77       0.1146
    308 H           0.7529   27.6212    2.2998 H      77  UNL77       0.1146
    309 N          -1.2510   27.5192    4.4318 N.3    78  UNL78      -0.3437
    310 H          -0.9444   27.6720    5.3915 H      78  UNL78       0.1146
    311 H          -1.0275   28.3750    3.9259 H      78  UNL78       0.1146
    312 H          -0.6372   26.8000    4.0520 H      78  UNL78       0.1146
    313 N           0.5921   27.8823    7.7987 N.3    79  UNL79      -0.3437
    314 H           0.1504   28.0529    6.8964 H      79  UNL79       0.1146
    315 H           1.3177   27.1871    7.6293 H      79  UNL79       0.1146
    316 H           1.0796   28.7439    8.0402 H      79  UNL79       0.1146
    317 N           0.1429   27.6142   10.5121 N.3    80  UNL80      -0.3437
    318 H          -0.4754   27.3186    9.7579 H      80  UNL80       0.1146
    319 H           0.8728   28.1741   10.0737 H      80  UNL80       0.1146
    320 H          -0.4003   28.2592   11.0841 H      80  UNL80       0.1146
    321 N           0.3765   28.2384   13.3588 N.3    81  UNL81      -0.3437
    322 H          -0.5062   27.8189   13.0703 H      81  UNL81       0.1146
    323 H           0.7915   27.5890   14.0254 H      81  UNL81       0.1146
    324 H           0.9783   28.2198   12.5367 H      81  UNL81       0.1146
    325 N           0.1801   28.7050   16.1607 N.3    82  UNL82      -0.3437
    326 H          -0.1004   28.0273   15.4534 H      82  UNL82       0.1146
    327 H           0.8371   28.2196   16.7700 H      82  UNL82       0.1146
    328 H           0.7232   29.4142   15.6704 H      82  UNL82       0.1146
    329 N          -0.0497   29.2147   19.3929 N.3    83  UNL83      -0.3437
    330 H          -0.5756   29.0358   20.2472 H      83  UNL83       0.1146
    331 H           0.9321   29.2301   19.6655 H      83  UNL83       0.1146
    332 H          -0.1669   28.3856   18.8122 H      83  UNL83       0.1146
    333 N           0.6295   27.7060   21.9191 N.3    84  UNL84      -0.3437
    334 H           0.2389   27.1125   22.6495 H      84  UNL84       0.1146
    335 H           0.6765   28.6440   22.3146 H      84  UNL84       0.1146
    336 H           1.5951   27.4037   21.7979 H      84  UNL84       0.1146
    337 N           0.2171   31.6332   -0.1125 N.3    85  UNL85      -0.3437
    338 H          -0.2246   30.7670    0.1925 H      85  UNL85       0.1146
    339 H           0.9427   31.8353    0.5738 H      85  UNL85       0.1146
    340 H           0.7046   31.4098   -0.9791 H      85  UNL85       0.1146
    341 N           0.2171   30.0036    2.6505 N.3    86  UNL86      -0.3437
    342 H          -0.2246   30.7663    3.1618 H      86  UNL86       0.1146
    343 H           0.9427   30.4324    2.0778 H      86  UNL86       0.1146
    344 H           0.7046   29.4430    3.3479 H      86  UNL86       0.1146
    345 N          -0.0329   31.2497    5.4804 N.3    87  UNL87      -0.3437
    346 H          -0.4746   31.7736    4.7263 H      87  UNL87       0.1146
    347 H           0.6927   30.6842    5.0421 H      87  UNL87       0.1146
    348 H           0.4546   31.9378    6.0525 H      87  UNL87       0.1146
    349 N           0.0921   31.1705   10.4152 N.3    88  UNL88      -0.3437
    350 H          -0.3496   31.7913   11.0919 H      88  UNL88       0.1146
    351 H           0.8177   31.7222    9.9597 H      88  UNL88       0.1146
    352 H           0.5796   30.4614   10.9610 H      88  UNL88       0.1146
    353 N          -0.1223   30.5495   13.2217 N.3    89  UNL89      -0.3437
    354 H          -0.3418   30.1112   12.3283 H      89  UNL89       0.1146
    355 H           0.8822   30.4366   13.3507 H      89  UNL89       0.1146
    356 H          -0.2781   31.5479   13.0905 H      89  UNL89       0.1146
    357 N           0.2018   31.2271   15.9650 N.3    90  UNL90      -0.3437
    358 H           1.1463   31.0941   16.3237 H      90  UNL90       0.1146
    359 H           0.1621   32.1879   15.6279 H      90  UNL90       0.1146
    360 H           0.1298   30.6362   15.1379 H      90  UNL90       0.1146
    361 N           0.3863   31.8673   18.3274 N.3    91  UNL91      -0.3437
    362 H           0.5623   30.8756   18.1726 H      91  UNL91       0.1146
    363 H           0.5851   32.0375   19.3122 H      91  UNL91       0.1146
    364 H           1.1063   32.3650   17.8055 H      91  UNL91       0.1146
    365 N          -0.7543   30.5959   22.4096 N.3    92  UNL92      -0.3437
    366 H          -0.5511   29.7102   22.8707 H      92  UNL92       0.1146
    367 H          -0.2244   31.3041   22.9156 H      92  UNL92       0.1146
    368 H          -0.3301   30.5351   21.4851 H      92  UNL92       0.1146
    369 N           0.7168   32.9112    2.3372 N.3    93  UNL93      -0.3437
    370 H           0.9610   32.4422    3.2083 H      93  UNL93       0.1146
    371 H          -0.2528   32.6624    2.1465 H      93  UNL93       0.1146
    372 H           0.7150   33.9085    2.5461 H      93  UNL93       0.1146
    373 N           0.2171   33.8195    5.1054 N.3    94  UNL94      -0.3437
    374 H          -0.2246   34.3434    4.3513 H      94  UNL94       0.1146
    375 H           0.9427   33.2540    4.6671 H      94  UNL94       0.1146
    376 H           0.7046   34.5075    5.6775 H      94  UNL94       0.1146
    377 N           0.7171   33.4257    8.0771 N.3    95  UNL95      -0.3437
    378 H           0.2754   32.5539    7.7886 H      95  UNL95       0.1146
    379 H           1.4427   33.1658    8.7437 H      95  UNL95       0.1146
    380 H           1.2046   33.7790    7.2550 H      95  UNL95       0.1146
    381 N           0.5134   34.5171   10.8430 N.3    96  UNL96      -0.3437
    382 H           0.6972   33.5572   10.5545 H      96  UNL96       0.1146
    383 H           1.2464   34.7553   11.5096 H      96  UNL96       0.1146
    384 H           0.6829   35.0948   10.0209 H      96  UNL96       0.1146
    385 N          -0.0769   33.8151   13.7948 N.3    97  UNL97      -0.3437
    386 H           0.6557   33.1268   13.9623 H      97  UNL97       0.1146
    387 H           0.3573   34.7266   13.9326 H      97  UNL97       0.1146
    388 H          -0.2962   33.7558   12.8015 H      97  UNL97       0.1146
    389 N          -0.4573   33.9617   16.5047 N.3    98  UNL98      -0.3437
    390 H          -1.2586   33.3347   16.5608 H      98  UNL98       0.1146
    391 H          -0.6123   34.5426   15.6820 H      98  UNL98       0.1146
    392 H          -0.5319   34.5854   17.3070 H      98  UNL98       0.1146
    393 N          -0.0010   34.5761   20.0597 N.3    99  UNL99      -0.3437
    394 H           0.3023   33.8060   19.4654 H      99  UNL99       0.1146
    395 H           0.3540   35.4252   19.6222 H      99  UNL99       0.1146
    396 H          -1.0153   34.6172   19.9705 H      99  UNL99       0.1146
    397 N           0.0921   37.2733   -0.5537 N.3   100  UNL100     -0.3437
    398 H          -0.3496   37.5639    0.3174 H     100  UNL100      0.1146
    399 H           0.8177   37.9629   -0.7444 H     100  UNL100      0.1146
    400 H           0.5796   36.4032   -0.3448 H     100  UNL100      0.1146
    401 N           1.3468   37.7356    1.9622 N.3   101  UNL101     -0.3437
    402 H           1.8045   38.0003    2.8333 H     101  UNL101      0.1146
    403 H           1.6382   36.7779    1.7715 H     101  UNL101      0.1146
    404 H           0.3505   37.6897    2.1711 H     101  UNL101      0.1146
    405 N           0.3656   36.2310    4.0934 N.3   102  UNL102     -0.3437
    406 H           1.2701   35.7620    4.0763 H     102  UNL102      0.1146
    407 H          -0.0630   35.9822    4.9838 H     102  UNL102      0.1146
    408 H           0.5673   37.2283    4.1478 H     102  UNL102      0.1146
    409 N           0.8680   36.1832    7.9771 N.3   103  UNL103     -0.3437
    410 H           0.1398   35.5051    7.7575 H     103  UNL103      0.1146
    411 H           1.7494   35.6739    7.9308 H     103  UNL103      0.1146
    412 H           0.8828   36.8413    7.1992 H     103  UNL103      0.1146
    413 N           0.4317   38.0625   10.1977 N.3   104  UNL104     -0.3437
    414 H           0.0868   37.2861   10.7603 H     104  UNL104      0.1146
    415 H           1.4485   38.0061   10.2343 H     104  UNL104      0.1146
    416 H           0.1731   37.8488    9.2355 H     104  UNL104      0.1146
    417 N          -0.4079   37.3572   12.9855 N.3   105  UNL105     -0.3437
    418 H          -0.8496   38.0441   12.3760 H     105  UNL105      0.1146
    419 H           0.3177   36.9109   12.4262 H     105  UNL105      0.1146
    420 H           0.0796   37.8912   13.7035 H     105  UNL105      0.1146
    421 N          -0.1579   37.2733   15.6663 N.3   106  UNL106     -0.3437
    422 H          -0.5996   37.5639   16.5374 H     106  UNL106      0.1146
    423 H           0.5677   37.9629   15.4756 H     106  UNL106      0.1146
    424 H           0.3296   36.4032   15.8752 H     106  UNL106      0.1146
    425 N           0.2171   37.5016   18.7540 N.3   107  UNL107     -0.3437
    426 H          -0.2246   36.6145   18.5165 H     107  UNL107      0.1146
    427 H           0.9427   37.2808   19.4345 H     107  UNL107      0.1146
    428 H           0.7046   37.8066   17.9127 H     107  UNL107      0.1146
    429 N           0.5257   36.4121   22.1760 N.3   108  UNL108     -0.3437
    430 H          -0.0730   35.9006   22.8227 H     108  UNL108      0.1146
    431 H           0.7503   35.7602   21.4257 H     108  UNL108      0.1146
    432 H          -0.0630   37.1306   21.7567 H     108  UNL108      0.1146
    433 N           2.9988   -0.3484    0.3926 N.3   109  UNL109     -0.3437
    434 H           2.5571   -0.5609   -0.5008 H     109  UNL109      0.1146
    435 H           3.7244   -1.0522    0.5216 H     109  UNL109      0.1146
    436 H           3.4863    0.5367    0.2614 H     109  UNL109      0.1146
    437 N           2.9988   -0.8489    2.8652 N.3   110  UNL110     -0.3437
    438 H           2.5571   -1.5270    2.2461 H     110  UNL110      0.1146
    439 H           3.7244   -1.3582    3.3677 H     110  UNL110      0.1146
    440 H           3.4863   -0.1908    2.2589 H     110  UNL110      0.1146
    441 N           2.6238   -0.1428    5.4804 N.3   111  UNL111     -0.3437
    442 H           2.1821    0.3811    4.7263 H     111  UNL111      0.1146
    443 H           3.3494   -0.7083    5.0421 H     111  UNL111      0.1146
    444 H           3.1113    0.5452    6.0525 H     111  UNL111      0.1146
    445 N           0.9956   -0.5174    7.6229 N.3   112  UNL112     -0.3437
    446 H           1.6007   -1.3278    7.7476 H     112  UNL112      0.1146
    447 H           0.5538   -0.3550    8.5267 H     112  UNL112      0.1146
    448 H           1.6166    0.2754    7.4674 H     112  UNL112      0.1146
    449 N           2.4561   -1.2702   10.3256 N.3   113  UNL113     -0.3437
    450 H           3.1349   -1.7834    9.7651 H     113  UNL113      0.1146
    451 H           2.2115   -1.8835   11.1017 H     113  UNL113      0.1146
    452 H           2.9643   -0.4878   10.7354 H     113  UNL113      0.1146
    453 N           2.7772   -0.0964   13.0901 N.3   114  UNL114     -0.3437
    454 H           2.3804   -0.9027   12.6098 H     114  UNL114      0.1146
    455 H           1.9923    0.5168   13.3050 H     114  UNL114      0.1146
    456 H           3.1168   -0.4425   13.9863 H     114  UNL114      0.1146
    457 N           2.1522   -0.4531   16.5663 N.3   115  UNL115     -0.3437
    458 H           2.3492   -0.9957   15.7265 H     115  UNL115      0.1146
    459 H           2.6473   -0.9198   17.3249 H     115  UNL115      0.1146
    460 H           2.6181    0.4438   16.4368 H     115  UNL115      0.1146
    461 N           2.7488    0.5884   19.7654 N.3   116  UNL116     -0.3437
    462 H           2.3071   -0.2834   19.4769 H     116  UNL116      0.1146
    463 H           3.4744    0.3285   20.4320 H     116  UNL116      0.1146
    464 H           3.2363    0.9417   18.9433 H     116  UNL116      0.1146
    465 N           2.9582   -0.7417   22.6012 N.3   117  UNL117     -0.3437
    466 H           3.7255   -1.3353   22.9131 H     117  UNL117      0.1146
    467 H           3.3466    0.1962   22.5130 H     117  UNL117      0.1146
    468 H           2.7364   -1.0441   21.6537 H     117  UNL117      0.1146
    469 N           3.1125    2.3889    0.7332 N.3   118  UNL118     -0.3437
    470 H           3.3964    2.9799   -0.0468 H     118  UNL118      0.1146
    471 H           3.9674    1.9628    1.0884 H     118  UNL118      0.1146
    472 H           2.7905    3.0227    1.4632 H     118  UNL118      0.1146
    473 N           3.1564    1.9727    2.9307 N.3   119  UNL119     -0.3437
    474 H           2.3931    2.5935    3.1958 H     119  UNL119      0.1146
    475 H           4.0091    2.5244    3.0141 H     119  UNL119      0.1146
    476 H           3.2082    1.2636    3.6607 H     119  UNL119      0.1146
    477 N           3.4434    2.7472    5.6149 N.3   120  UNL120     -0.3437
    478 H           3.8595    2.5286    6.5191 H     120  UNL120      0.1146
    479 H           4.1674    3.2259    5.0809 H     120  UNL120      0.1146
    480 H           3.2965    1.8526    5.1497 H     120  UNL120      0.1146
    481 N           2.8497    2.0057    8.5645 N.3   121  UNL121     -0.3437
    482 H           2.5734    1.6212    7.6622 H     121  UNL121      0.1146
    483 H           3.7051    2.5330    8.3951 H     121  UNL121      0.1146
    484 H           2.1385    2.6944    8.8060 H     121  UNL121      0.1146
    485 N           3.3583    2.3110   11.0052 N.3   122  UNL122     -0.3437
    486 H           2.4041    2.6016   10.7970 H     122  UNL122      0.1146
    487 H           3.7255    3.0006   11.6594 H     122  UNL122      0.1146
    488 H           3.2788    1.4409   11.5296 H     122  UNL122      0.1146
    489 N           3.2318    2.1331   14.3334 N.3   123  UNL123     -0.3437
    490 H           3.7955    1.7492   13.5763 H     123  UNL123      0.1146
    491 H           3.7946    2.8693   14.7572 H     123  UNL123      0.1146
    492 H           2.4449    2.6027   13.8875 H     123  UNL123      0.1146
    493 N           3.2307    2.9972   17.2714 N.3   124  UNL124     -0.3437
    494 H           3.0069    2.7786   18.2412 H     124  UNL124      0.1146
    495 H           4.1301    3.4759   17.2917 H     124  UNL124      0.1146
    496 H           3.3991    2.1026   16.8135 H     124  UNL124      0.1146
    497 N           3.4594    2.0591   22.5150 N.3   125  UNL125     -0.3437
    498 H           4.2012    2.6495   22.8884 H     125  UNL125      0.1146
    499 H           2.5835    2.5095   22.7767 H     125  UNL125      0.1146
    500 H           3.5227    2.1362   21.5009 H     125  UNL125      0.1146
    501 N           3.2488    5.5052   -0.3625 N.3   126  UNL126     -0.3437
    502 H           2.8071    4.6390   -0.0575 H     126  UNL126      0.1146
    503 H           3.9744    5.7073    0.3238 H     126  UNL126      0.1146
    504 H           3.7363    5.2819   -1.2291 H     126  UNL126      0.1146
    505 N           2.8738    4.8756    2.5255 N.3   127  UNL127     -0.3437
    506 H           2.4321    5.6383    3.0368 H     127  UNL127      0.1146
    507 H           3.5994    5.3045    1.9528 H     127  UNL127      0.1146
    508 H           3.3613    4.3150    3.2229 H     127  UNL127      0.1146
    509 N           2.9391    5.5862    5.0474 N.3   128  UNL128     -0.3437
    510 H           2.1424    6.1214    4.7051 H     128  UNL128      0.1146
    511 H           3.0293    5.8179    6.0357 H     128  UNL128      0.1146
    512 H           2.6559    4.6079    5.0131 H     128  UNL128      0.1146
    513 N           2.8738    4.4343    7.8390 N.3   129  UNL129     -0.3437
    514 H           2.4321    5.3362    7.6662 H     129  UNL129      0.1146
    515 H           3.5994    4.3366    7.1302 H     129  UNL129      0.1146
    516 H           3.3613    4.5262    8.7291 H     129  UNL129      0.1146
    517 N           2.3123    5.1577   10.4483 N.3   130  UNL130     -0.3437
    518 H           1.9120    4.3652    9.9482 H     130  UNL130      0.1146
    519 H           1.7874    5.2350   11.3183 H     130  UNL130      0.1146
    520 H           3.2550    4.8755   10.7132 H     130  UNL130      0.1146
    521 N           3.2048    5.1061   13.2840 N.3   131  UNL131     -0.3437
    522 H           3.9374    4.6641   13.8374 H     131  UNL131      0.1146
    523 H           3.6390    5.9115   12.8354 H     131  UNL131      0.1146
    524 H           2.9855    4.4516   12.5344 H     131  UNL131      0.1146
    525 N           2.8738    5.4779   16.2496 N.3   132  UNL132     -0.3437
    526 H           2.4321    4.6061   15.9611 H     132  UNL132      0.1146
    527 H           3.5994    5.2180   16.9162 H     132  UNL132      0.1146
    528 H           3.3613    5.8313   15.4275 H     132  UNL132      0.1146
    529 N           2.8298    4.7707   19.2654 N.3   133  UNL133     -0.3437
    530 H           3.5624    4.1238   18.9769 H     133  UNL133      0.1146
    531 H           3.2640    5.4075   19.9320 H     133  UNL133      0.1146
    532 H           2.6105    5.3314   18.4433 H     133  UNL133      0.1146
    533 N           2.3968    5.1214   21.9450 N.3   134  UNL134     -0.3437
    534 H           3.2219    5.7065   22.0684 H     134  UNL134      0.1146
    535 H           2.7420    4.1696   21.8298 H     134  UNL134      0.1146
    536 H           1.9060    5.1359   22.8379 H     134  UNL134      0.1146
    537 N           3.5141    7.9293   -0.0912 N.3   135  UNL135     -0.3437
    538 H           3.8763    8.3460    0.7652 H     135  UNL135      0.1146
    539 H           2.6667    7.4302    0.1758 H     135  UNL135      0.1146
    540 H           3.2097    8.7070   -0.6751 H     135  UNL135      0.1146
    541 N           1.5281    8.2006    2.6266 N.3   136  UNL136     -0.3437
    542 H           1.7115    8.4912    3.5859 H     136  UNL136      0.1146
    543 H           1.9855    8.8902    2.0319 H     136  UNL136      0.1146
    544 H           2.0416    7.3305    2.4936 H     136  UNL136      0.1146
    545 N           3.0468    8.1123    5.4166 N.3   137  UNL137     -0.3437
    546 H           3.1113    8.7331    6.2221 H     137  UNL137      0.1146
    547 H           3.3422    8.6640    4.6124 H     137  UNL137      0.1146
    548 H           3.7664    7.4032    5.5502 H     137  UNL137      0.1146
    549 N           2.7488    7.3609    8.0650 N.3   138  UNL138     -0.3437
    550 H           2.3071    7.1484    7.1717 H     138  UNL138      0.1146
    551 H           3.4744    6.6571    8.1940 H     138  UNL138      0.1146
    552 H           3.2363    8.2460    7.9338 H     138  UNL138      0.1146
    553 N           3.1238    8.0477   10.4680 N.3   139  UNL139     -0.3437
    554 H           2.6821    7.1759   10.1795 H     139  UNL139      0.1146
    555 H           3.8494    7.7878   11.1346 H     139  UNL139      0.1146
    556 H           3.6113    8.4011    9.6459 H     139  UNL139      0.1146
    557 N           2.9362    8.2993   13.0976 N.3   140  UNL140     -0.3437
    558 H           3.1355    7.9649   14.0393 H     140  UNL140      0.1146
    559 H           2.3967    7.5620   12.6461 H     140  UNL140      0.1146
    560 H           2.2984    9.0863   13.2081 H     140  UNL140      0.1146
    561 N           3.1238    8.2373   16.0719 N.3   141  UNL141     -0.3437
    562 H           2.6821    8.8581   16.7486 H     141  UNL141      0.1146
    563 H           3.8494    8.7890   15.6164 H     141  UNL141      0.1146
    564 H           3.6113    7.5282   16.6177 H     141  UNL141      0.1146
    565 N           1.0320    8.0323   18.4593 N.3   142  UNL142     -0.3437
    566 H           0.4995    8.8670   18.7003 H     142  UNL142      0.1146
    567 H           1.3831    7.6591   19.3401 H     142  UNL142      0.1146
    568 H           0.3522    7.3541   18.1182 H     142  UNL142      0.1146
    569 N           3.0612    8.2063   20.8982 N.3   143  UNL143     -0.3437
    570 H           2.9384    8.5364   21.8544 H     143  UNL143      0.1146
    571 H           3.7146    8.8535   20.4593 H     143  UNL143      0.1146
    572 H           3.5525    7.3163   20.9692 H     143  UNL143      0.1146
    573 N           3.3523   11.0039    0.1444 N.3   144  UNL144     -0.3437
    574 H           4.2344   11.0012    0.6547 H     144  UNL144      0.1146
    575 H           2.7719   10.2903    0.5830 H     144  UNL144      0.1146
    576 H           2.9081   11.8962    0.3559 H     144  UNL144      0.1146
    577 N           2.5289   10.9726    2.6034 N.3   145  UNL145     -0.3437
    578 H           1.7355   10.3840    2.3533 H     145  UNL145      0.1146
    579 H           2.2405   11.4971    3.4281 H     145  UNL145      0.1146
    580 H           3.2619   10.3378    2.9165 H     145  UNL145      0.1146
    581 N           3.0395   10.6727    5.5065 N.3   146  UNL146     -0.3437
    582 H           3.4328   11.0387    6.3724 H     146  UNL146      0.1146
    583 H           2.4693   11.4226    5.1180 H     146  UNL146      0.1146
    584 H           3.8251   10.5575    4.8678 H     146  UNL146      0.1146
    585 N           1.3724   10.8292   10.5479 N.3   147  UNL147     -0.3437
    586 H           2.0109   10.8312    9.7537 H     147  UNL147      0.1146
    587 H           1.4494   11.7524   10.9725 H     147  UNL147      0.1146
    588 H           0.4341   10.7787   10.1538 H     147  UNL147      0.1146
    589 N           2.9988   10.9307   13.3467 N.3   148  UNL148     -0.3437
    590 H           2.5571   10.7182   12.4533 H     148  UNL148      0.1146
    591 H           3.7244   10.2269   13.4757 H     148  UNL148      0.1146
    592 H           3.4863   11.8158   13.2155 H     148  UNL148      0.1146
    593 N           3.0962   11.1175   15.8585 N.3   149  UNL149     -0.3437
    594 H           2.9233   10.2457   15.3601 H     149  UNL149      0.1146
    595 H           3.2625   10.8576   16.8297 H     149  UNL149      0.1146
    596 H           3.9848   11.4708   15.5063 H     149  UNL149      0.1146
    597 N           1.9584   10.7329   19.3533 N.3   150  UNL150     -0.3437
    598 H           2.9105   11.0268   19.5667 H     150  UNL150      0.1146
    599 H           1.4089   11.5884   19.2857 H     150  UNL150      0.1146
    600 H           1.9889   10.3435   18.4121 H     150  UNL150      0.1146
    601 N           3.1595   10.7874   22.2575 N.3   151  UNL151     -0.3437
    602 H           3.7680   10.1938   22.8194 H     151  UNL151      0.1146
    603 H           3.5541   11.7253   22.3116 H     151  UNL151      0.1146
    604 H           3.2852   10.4850   21.2926 H     151  UNL151      0.1146
    605 N           3.2488   13.4651    2.3372 N.3   152  UNL152     -0.3437
    606 H           2.8071   13.7557    3.2083 H     152  UNL152      0.1146
    607 H           3.9744   14.1547    2.1465 H     152  UNL152      0.1146
    608 H           3.7363   12.5950    2.5461 H     152  UNL152      0.1146
    609 N           3.4389   13.4149    5.2304 N.3   153  UNL153     -0.3437
    610 H           3.5693   12.7421    4.4763 H     153  UNL153      0.1146
    611 H           3.0807   14.2622    4.7921 H     153  UNL153      0.1146
    612 H           2.6779   13.0515    5.8025 H     153  UNL153      0.1146
    613 N           3.1238   13.1437    8.0890 N.3   154  UNL154     -0.3437
    614 H           2.6821   14.0456    7.9162 H     154  UNL154      0.1146
    615 H           3.8494   13.0459    7.3802 H     154  UNL154      0.1146
    616 H           3.6113   13.2356    8.9791 H     154  UNL154      0.1146
    617 N           2.9201   13.6536   11.4680 N.3   155  UNL155     -0.3437
    618 H           3.1039   12.6938   11.1795 H     155  UNL155      0.1146
    619 H           3.6531   13.8919   12.1346 H     155  UNL155      0.1146
    620 H           3.0896   14.2314   10.6459 H     155  UNL155      0.1146
    621 N           1.2899   13.4724   13.3156 N.3   156  UNL156     -0.3437
    622 H           1.2290   14.3908   12.8783 H     156  UNL156      0.1146
    623 H           0.3812   13.3053   13.7455 H     156  UNL156      0.1146
    624 H           1.3667   12.8022   12.5518 H     156  UNL156      0.1146
    625 N           2.7331   13.7479   15.3496 N.3   157  UNL157     -0.3437
    626 H           3.4413   14.4024   15.6789 H     157  UNL157      0.1146
    627 H           3.2363   13.0211   14.8427 H     157  UNL157      0.1146
    628 H           2.3561   13.2993   16.1832 H     157  UNL157      0.1146
    629 N           3.4681   13.8269   18.5923 N.3   158  UNL158     -0.3437
    630 H           3.3560   13.5250   19.5591 H     158  UNL158      0.1146
    631 H           3.1548   13.0468   18.0164 H     158  UNL158      0.1146
    632 H           2.7878   14.5720   18.4500 H     158  UNL158      0.1146
    633 N           3.3845   14.1072   22.2554 N.3   159  UNL159     -0.3437
    634 H           2.7619   13.5136   22.8017 H     159  UNL159      0.1146
    635 H           3.2894   15.0451   22.6422 H     159  UNL159      0.1146
    636 H           4.3310   13.8048   22.4818 H     159  UNL159      0.1146
    637 N           3.0684   16.2505    0.7070 N.3   160  UNL160     -0.3437
    638 H           3.4845   15.3664    0.9959 H     160  UNL160      0.1146
    639 H           3.7924   16.9564    0.8337 H     160  UNL160      0.1146
    640 H           2.9215   16.1765   -0.2986 H     160  UNL160      0.1146
    641 N           2.9411   16.4179    3.3163 N.3   161  UNL161     -0.3437
    642 H           3.7034   16.3826    3.9915 H     161  UNL161      0.1146
    643 H           3.2818   16.9794    2.5371 H     161  UNL161      0.1146
    644 H           2.8405   15.4699    2.9564 H     161  UNL161      0.1146
    645 N           3.3184   16.7211    6.1149 N.3   162  UNL162     -0.3437
    646 H           3.7345   16.5025    7.0191 H     162  UNL162      0.1146
    647 H           4.0424   17.1997    5.5809 H     162  UNL162      0.1146
    648 H           3.1715   15.8265    5.6497 H     162  UNL162      0.1146
    649 N           2.8738   16.1032    8.9395 N.3   163  UNL163     -0.3437
    650 H           2.4321   16.2738    8.0372 H     163  UNL163      0.1146
    651 H           3.5994   15.4080    8.7701 H     163  UNL163      0.1146
    652 H           3.3613   16.9648    9.1810 H     163  UNL163      0.1146
    653 N           3.2333   16.7849   11.2552 N.3   164  UNL164     -0.3437
    654 H           2.2791   17.0755   11.0470 H     164  UNL164      0.1146
    655 H           3.6005   17.4745   11.9094 H     164  UNL164      0.1146
    656 H           3.1538   15.9148   11.7796 H     164  UNL164      0.1146
    657 N           3.1238   16.4099   14.0413 N.3   165  UNL165     -0.3437
    658 H           2.6821   16.7005   14.9124 H     165  UNL165      0.1146
    659 H           3.8494   17.0995   13.8506 H     165  UNL165      0.1146
    660 H           3.6113   15.5398   14.2502 H     165  UNL165      0.1146
    661 N           3.0717   16.7122   17.4910 N.3   166  UNL166     -0.3437
    662 H           3.7231   17.4817   17.3434 H     166  UNL166      0.1146
    663 H           3.5939   15.8600   17.2921 H     166  UNL166      0.1146
    664 H           2.8781   16.6959   18.4913 H     166  UNL166      0.1146
    665 N           3.1238   16.8017   20.9776 N.3   167  UNL167     -0.3437
    666 H           2.6821   16.4987   21.8444 H     167  UNL167      0.1146
    667 H           3.8494   17.4639   21.2485 H     167  UNL167      0.1146
    668 H           3.6113   15.9855   20.6106 H     167  UNL167      0.1146
    669 N           2.9693   18.8546   -0.1490 N.3   168  UNL168     -0.3437
    670 H           2.8051   18.3448    0.7178 H     168  UNL168      0.1146
    671 H           3.1382   19.8223    0.1219 H     168  UNL168      0.1146
    672 H           3.8541   18.5072   -0.5160 H     168  UNL168      0.1146
    673 N           1.3738   19.4797    2.4622 N.3   169  UNL169     -0.3437
    674 H           0.9321   19.7703    3.3333 H     169  UNL169      0.1146
    675 H           2.0994   20.1693    2.2715 H     169  UNL169      0.1146
    676 H           1.8613   18.6096    2.6711 H     169  UNL169      0.1146
    677 N           2.7723   19.2687    5.3675 N.3   170  UNL170     -0.3437
    678 H           2.6006   19.7201    4.4703 H     170  UNL170      0.1146
    679 H           3.7681   19.0535    5.3877 H     170  UNL170      0.1146
    680 H           2.6257   19.9866    6.0757 H     170  UNL170      0.1146
    681 N           3.0551   18.9055    7.8733 N.3   171  UNL171     -0.3437
    682 H           3.2124   18.7398    8.8664 H     171  UNL171      0.1146
    683 H           3.1586   19.9100    7.7363 H     171  UNL171      0.1146
    684 H           3.8406   18.4736    7.3886 H     171  UNL171      0.1146
    685 N           1.4582   19.1190   10.7877 N.3   172  UNL172     -0.3437
    686 H           1.5236   18.3123   10.1686 H     172  UNL172      0.1146
    687 H           2.3437   19.1599   11.2902 H     172  UNL172      0.1146
    688 H           1.4413   19.9378   10.1814 H     172  UNL172      0.1146
    689 N           2.9988   19.2018   13.2338 N.3   173  UNL173     -0.3437
    690 H           2.5571   18.3300   12.9453 H     173  UNL173      0.1146
    691 H           3.7244   18.9419   13.9004 H     173  UNL173      0.1146
    692 H           3.4863   19.5552   12.4117 H     173  UNL173      0.1146
    693 N           2.1290   19.2556   16.0525 N.3   174  UNL174     -0.3437
    694 H           3.0912   19.5300   15.8596 H     174  UNL174      0.1146
    695 H           1.5420   19.9005   15.5253 H     174  UNL174      0.1146
    696 H           2.0046   18.3427   15.6171 H     174  UNL174      0.1146
    697 N           2.5398   19.3131   18.3843 N.3   175  UNL175     -0.3437
    698 H           1.8986   18.6164   18.7609 H     175  UNL175      0.1146
    699 H           2.0365   20.1989   18.4062 H     175  UNL175      0.1146
    700 H           3.2918   19.4005   19.0664 H     175  UNL175      0.1146
    701 N           2.1811   19.5216   21.5476 N.3   176  UNL176     -0.3437
    702 H           2.1944   18.7215   20.9168 H     176  UNL176      0.1146
    703 H           2.4434   19.1613   22.4639 H     176  UNL176      0.1146
    704 H           2.9479   20.1245   21.2528 H     176  UNL176      0.1146
    705 N           2.9988   22.2995    1.8372 N.3   177  UNL177     -0.3437
    706 H           2.5571   22.5901    2.7083 H     177  UNL177      0.1146
    707 H           3.7244   22.9891    1.6465 H     177  UNL177      0.1146
    708 H           3.4863   21.4294    2.0461 H     177  UNL177      0.1146
    709 N           2.9988   21.9593    5.0061 N.3   178  UNL178     -0.3437
    710 H           2.5571   21.2812    4.3869 H     178  UNL178      0.1146
    711 H           3.7244   21.4500    5.5086 H     178  UNL178      0.1146
    712 H           3.4863   22.6174    4.3997 H     178  UNL178      0.1146
    713 N           3.1238   22.5495    7.4938 N.3   179  UNL179     -0.3437
    714 H           2.6821   22.8401    8.3649 H     179  UNL179      0.1146
    715 H           3.8494   23.2391    7.3031 H     179  UNL179      0.1146
    716 H           3.6113   21.6794    7.7027 H     179  UNL179      0.1146
    717 N           3.1765   21.1525   10.2278 N.3   180  UNL180     -0.3437
    718 H           3.9299   21.1428   10.9138 H     180  UNL180      0.1146
    719 H           3.2342   22.0560    9.7599 H     180  UNL180      0.1146
    720 H           3.4261   20.4567    9.5265 H     180  UNL180      0.1146
    721 N           3.0798   22.0602   12.5718 N.3   181  UNL181     -0.3437
    722 H           3.8124   22.6574   12.1908 H     181  UNL181      0.1146
    723 H           3.5140   21.1530   12.7359 H     181  UNL181      0.1146
    724 H           2.8605   22.4373   13.4927 H     181  UNL181      0.1146
    725 N           3.1238   21.7373   15.7025 N.3   182  UNL182     -0.3437
    726 H           2.6821   22.5484   15.2720 H     182  UNL182      0.1146
    727 H           3.8494   21.4353   15.0539 H     182  UNL182      0.1146
    728 H           3.6113   22.0870   16.5261 H     182  UNL182      0.1146
    729 N           2.8222   21.9596   19.2720 N.3   183  UNL183     -0.3437
    730 H           3.1104   22.8187   19.7382 H     183  UNL183      0.1146
    731 H           2.7109   22.1980   18.2875 H     183  UNL183      0.1146
    732 H           3.6233   21.3317   19.3200 H     183  UNL183      0.1146
    733 N           3.1651   22.2617   22.3806 N.3   184  UNL184     -0.3437
    734 H           3.3028   22.3821   21.3782 H     184  UNL184      0.1146
    735 H           3.4442   21.3041   22.5894 H     184  UNL184      0.1146
    736 H           3.8548   22.8601   22.8328 H     184  UNL184      0.1146
    737 N           0.9031   25.4942   -0.6392 N.3   185  UNL185     -0.3437
    738 H           1.0865   25.7848    0.3201 H     185  UNL185      0.1146
    739 H           1.3605   26.1838   -1.2339 H     185  UNL185      0.1146
    740 H           1.4166   24.6241   -0.7722 H     185  UNL185      0.1146
    741 N           3.2488   25.1559    2.7428 N.3   186  UNL186     -0.3437
    742 H           2.8071   25.7767    3.4194 H     186  UNL186      0.1146
    743 H           3.9744   25.7077    2.2872 H     186  UNL186      0.1146
    744 H           3.7363   24.4468    3.2886 H     186  UNL186      0.1146
    745 N           2.6238   24.6545    5.5492 N.3   187  UNL187     -0.3437
    746 H           2.1821   24.4421    4.6558 H     187  UNL187      0.1146
    747 H           3.3494   23.9508    5.6782 H     187  UNL187      0.1146
    748 H           3.1113   25.5397    5.4180 H     187  UNL187      0.1146
    749 N           2.7344   25.5074    8.1395 N.3   188  UNL188     -0.3437
    750 H           2.1554   25.7154    7.3271 H     188  UNL188      0.1146
    751 H           2.2721   24.7397    8.6247 H     188  UNL188      0.1146
    752 H           3.6049   25.1245    7.7733 H     188  UNL188      0.1146
    753 N           3.1238   24.6768   10.5648 N.3   189  UNL189     -0.3437
    754 H           2.6821   25.5950   10.5561 H     189  UNL189      0.1146
    755 H           3.8494   24.7073    9.8500 H     189  UNL189      0.1146
    756 H           3.6113   24.6080   11.4570 H     189  UNL189      0.1146
    757 N           3.6085   25.3692   13.2093 N.3   190  UNL190     -0.3437
    758 H           3.1249   25.6598   12.3608 H     190  UNL190      0.1146
    759 H           3.3678   26.0588   13.9200 H     190  UNL190      0.1146
    760 H           3.1656   24.4991   13.5011 H     190  UNL190      0.1146
    761 N           3.3433   24.9385   15.8034 N.3   191  UNL191     -0.3437
    762 H           3.1972   24.4333   16.6763 H     191  UNL191      0.1146
    763 H           4.1680   24.5226   15.3729 H     191  UNL191      0.1146
    764 H           2.5583   24.6927   15.2019 H     191  UNL191      0.1146
    765 N           2.2951   25.0577   18.7654 N.3   192  UNL192     -0.3437
    766 H           2.4789   24.0979   18.4769 H     192  UNL192      0.1146
    767 H           3.0281   25.2960   19.4320 H     192  UNL192      0.1146
    768 H           2.4646   25.6355   17.9433 H     192  UNL192      0.1146
    769 N           2.1845   25.1827   22.2205 N.3   193  UNL193     -0.3437
    770 H           2.0311   24.5635   21.4258 H     193  UNL193      0.1146
    771 H           1.4744   24.9373   22.9089 H     193  UNL193      0.1146
    772 H           3.0768   24.9036   22.6258 H     193  UNL193      0.1146
    773 N           3.4550   27.3610    1.1014 N.3   194  UNL194     -0.3437
    774 H           2.6784   26.8014    0.7523 H     194  UNL194      0.1146
    775 H           3.2884   28.3103    0.7703 H     194  UNL194      0.1146
    776 H           3.3450   27.3935    2.1140 H     194  UNL194      0.1146
    777 N           1.3261   27.6332    5.2503 N.3   195  UNL195     -0.3437
    778 H           2.3381   27.7090    5.3431 H     195  UNL195      0.1146
    779 H           0.9558   28.5622    5.4458 H     195  UNL195      0.1146
    780 H           1.1468   27.4617    4.2620 H     195  UNL195      0.1146
    781 N           3.0535   28.0912    7.5423 N.3   196  UNL196     -0.3437
    782 H           3.1525   28.4414    8.4941 H     196  UNL196      0.1146
    783 H           3.2310   28.8866    6.9305 H     196  UNL196      0.1146
    784 H           3.8297   27.4471    7.3978 H     196  UNL196      0.1146
    785 N           2.9554   27.4843   10.8565 N.3   197  UNL197     -0.3437
    786 H           2.3340   26.8492   11.3552 H     197  UNL197      0.1146
    787 H           3.8616   27.0196   10.8199 H     197  UNL197      0.1146
    788 H           2.6158   27.5132    9.8962 H     197  UNL197      0.1146
    789 N           3.0266   28.4130   12.9547 N.3   198  UNL198     -0.3437
    790 H           3.6333   29.0208   12.4062 H     198  UNL198      0.1146
    791 H           3.6396   27.9021   13.5885 H     198  UNL198      0.1146
    792 H           2.4673   29.0302   13.5418 H     198  UNL198      0.1146
    793 N           3.1047   27.5443   15.4920 N.3   199  UNL199     -0.3437
    794 H           3.8302   26.8288   15.4837 H     199  UNL199      0.1146
    795 H           2.3447   27.1672   16.0564 H     199  UNL199      0.1146
    796 H           3.4871   28.3259   16.0224 H     199  UNL199      0.1146
    797 N           2.9683   27.8861   18.5705 N.3   200  UNL200     -0.3437
    798 H           1.9969   27.8391   18.2661 H     200  UNL200      0.1146
    799 H           3.4011   27.0160   18.2637 H     200  UNL200      0.1146
    800 H           3.4005   28.6249   18.0176 H     200  UNL200      0.1146
    801 N           3.4156   28.1892   22.5867 N.3   201  UNL201     -0.3437
    802 H           3.1157   27.2493   22.8418 H     201  UNL201      0.1146
    803 H           3.6490   28.1503   21.5955 H     201  UNL201      0.1146
    804 H           2.5865   28.7774   22.6571 H     201  UNL201      0.1146
    805 N           3.1238   30.8559    0.0297 N.3   202  UNL202     -0.3437
    806 H           2.6821   29.9841   -0.2588 H     202  UNL202      0.1146
    807 H           3.8494   30.5960    0.6963 H     202  UNL202      0.1146
    808 H           3.6113   31.2093   -0.7924 H     202  UNL202      0.1146
    809 N           3.0448   29.3977    3.0824 N.3   203  UNL203     -0.3437
    810 H           2.6524   30.0145    2.3726 H     203  UNL203      0.1146
    811 H           2.5600   28.5072    2.9799 H     203  UNL203      0.1146
    812 H           4.0096   29.2259    2.8031 H     203  UNL203      0.1146
    813 N           3.1379   30.5625    5.3981 N.3   204  UNL204     -0.3437
    814 H           2.6889   31.4302    5.6879 H     204  UNL204      0.1146
    815 H           2.3834   29.8995    5.2264 H     204  UNL204      0.1146
    816 H           3.5566   30.7530    4.4888 H     204  UNL204      0.1146
    817 N           1.7352   30.7790    7.9555 N.3   205  UNL205     -0.3437
    818 H           0.8409   30.9401    8.4166 H     205  UNL205      0.1146
    819 H           2.1782   30.0134    8.4615 H     205  UNL205      0.1146
    820 H           1.5125   30.4128    7.0310 H     205  UNL205      0.1146
    821 N           2.7488   30.4427   10.6966 N.3   206  UNL206     -0.3437
    822 H           2.3071   29.9441   11.4677 H     206  UNL206      0.1146
    823 H           3.4744   31.0224   11.1159 H     206  UNL206      0.1146
    824 H           3.2363   29.7360   10.1477 H     206  UNL206      0.1146
    825 N           2.7939   31.6604   13.3467 N.3   207  UNL207     -0.3437
    826 H           2.3145   31.7625   12.4533 H     207  UNL207      0.1146
    827 H           2.9374   30.6599   13.4757 H     207  UNL207      0.1146
    828 H           3.7210   32.0625   13.2155 H     207  UNL207      0.1146
    829 N           3.1985   30.1443   15.8531 N.3   208  UNL208     -0.3437
    830 H           2.4309   29.7021   15.3496 H     208  UNL208      0.1146
    831 H           3.2322   31.1081   15.5238 H     208  UNL208      0.1146
    832 H           2.9052   30.1907   16.8279 H     208  UNL208      0.1146
    833 N           2.9201   30.8827   19.7202 N.3   209  UNL209     -0.3437
    834 H           3.1039   29.9469   20.0791 H     209  UNL209      0.1146
    835 H           3.6531   31.4789   20.1019 H     209  UNL209      0.1146
    836 H           3.0896   30.8369   18.7165 H     209  UNL209      0.1146
    837 N           2.1094   30.8080   21.9550 N.3   210  UNL210     -0.3437
    838 H           1.8271   29.9258   21.5302 H     210  UNL210      0.1146
    839 H           1.7278   31.5414   21.3592 H     210  UNL210      0.1146
    840 H           1.6024   30.8702   22.8367 H     210  UNL210      0.1146
    841 N           1.2273   34.1558    0.0796 N.3   211  UNL211     -0.3437
    842 H           1.2857   34.8141    0.8552 H     211  UNL211      0.1146
    843 H           1.1024   34.7206   -0.7593 H     211  UNL211      0.1146
    844 H           2.1513   33.7339   -0.0009 H     211  UNL211      0.1146
    845 N           3.4307   32.5733    2.2362 N.3   212  UNL212     -0.3437
    846 H           3.2473   33.3361    1.5858 H     212  UNL212      0.1146
    847 H           3.5088   33.0022    3.1572 H     212  UNL212      0.1146
    848 H           2.5800   32.0128    2.2587 H     212  UNL212      0.1146
    849 N           3.2642   34.9134    5.4314 N.3   213  UNL213     -0.3437
    850 H           3.6606   35.5394    4.7318 H     213  UNL213      0.1146
    851 H           2.8714   35.5137    6.1550 H     213  UNL213      0.1146
    852 H           2.4706   34.4578    4.9831 H     213  UNL213      0.1146
    853 N           3.2124   32.7357    7.1986 N.3   214  UNL214     -0.3437
    854 H           3.3401   32.3525    8.1342 H     214  UNL214      0.1146
    855 H           3.1173   33.7432    7.3184 H     214  UNL214      0.1146
    856 H           4.0970   32.5929    6.7134 H     214  UNL214      0.1146
    857 N           2.9988   32.8861   10.4398 N.3   215  UNL215     -0.3437
    858 H           2.5571   33.8043   10.4311 H     215  UNL215      0.1146
    859 H           3.7244   32.9166    9.7250 H     215  UNL215      0.1146
    860 H           3.4863   32.8174   11.3320 H     215  UNL215      0.1146
    861 N           3.0332   34.5030   13.2338 N.3   216  UNL216     -0.3437
    862 H           2.1505   34.0835   12.9453 H     216  UNL216      0.1146
    863 H           3.4482   33.8535   13.9004 H     216  UNL216      0.1146
    864 H           3.6350   34.4843   12.4117 H     216  UNL216      0.1146
    865 N           2.3738   33.1414   15.9525 N.3   217  UNL217     -0.3437
    866 H           1.9321   33.9525   15.5220 H     217  UNL217      0.1146
    867 H           3.0994   32.8394   15.3039 H     217  UNL217      0.1146
    868 H           2.8613   33.4911   16.7761 H     217  UNL217      0.1146
    869 N           2.4201   34.1421   18.7654 N.3   218  UNL218     -0.3437
    870 H           2.6039   33.1822   18.4769 H     218  UNL218      0.1146
    871 H           3.1531   34.3803   19.4320 H     218  UNL218      0.1146
    872 H           2.5896   34.7198   17.9433 H     218  UNL218      0.1146
    873 N           1.5279   33.5858   22.1107 N.3   219  UNL219     -0.3437
    874 H           1.7941   34.5042   22.4629 H     219  UNL219      0.1146
    875 H           2.1119   33.4187   21.2925 H     219  UNL219      0.1146
    876 H           1.8329   32.9156   22.8150 H     219  UNL219      0.1146
    877 N           3.4086   37.1237   -0.0507 N.3   220  UNL220     -0.3437
    878 H           3.2516   37.9182   -0.6691 H     220  UNL220      0.1146
    879 H           3.5941   37.5173    0.8707 H     220  UNL220      0.1146
    880 H           2.5125   36.6444    0.0239 H     220  UNL220      0.1146
    881 N           3.4408   35.6832    2.2011 N.3   221  UNL221     -0.3437
    882 H           4.0589   35.0051    2.6443 H     221  UNL221      0.1146
    883 H           2.5917   35.1739    1.9601 H     221  UNL221      0.1146
    884 H           3.1754   36.3413    2.9325 H     221  UNL221      0.1146
    885 N           2.5321   37.9228    5.3556 N.3   222  UNL222     -0.3437
    886 H           3.5085   38.0502    5.6176 H     222  UNL222      0.1146
    887 H           2.5413   37.5744    4.3980 H     222  UNL222      0.1146
    888 H           2.1849   37.1561    5.9300 H     222  UNL222      0.1146
    889 N           3.1765   37.9027    8.1523 N.3   223  UNL223     -0.3437
    890 H           2.3705   37.8529    8.7737 H     223  UNL223      0.1146
    891 H           3.9953   37.9476    8.7572 H     223  UNL223      0.1146
    892 H           3.2244   37.0003    7.6814 H     223  UNL223      0.1146
    893 N           2.9495   36.1060   10.3199 N.3   224  UNL224     -0.3437
    894 H           3.6755   35.6370   10.8596 H     224  UNL224      0.1146
    895 H           2.0658   35.8572   10.7621 H     224  UNL224      0.1146
    896 H           3.0759   37.1033   10.4863 H     224  UNL224      0.1146
    897 N           2.7488   37.2733   12.5255 N.3   225  UNL225     -0.3437
    898 H           2.3071   37.5639   13.3966 H     225  UNL225      0.1146
    899 H           3.4744   37.9629   12.3348 H     225  UNL225      0.1146
    900 H           3.2363   36.4032   12.7344 H     225  UNL225      0.1146
    901 N           2.6030   37.3525   15.4864 N.3   226  UNL226     -0.3437
    902 H           3.6156   37.3980   15.5910 H     226  UNL226      0.1146
    903 H           2.3269   36.4314   15.8237 H     226  UNL226      0.1146
    904 H           2.2213   38.0217   16.1534 H     226  UNL226      0.1146
    905 N           3.0345   37.3590   18.3383 N.3   227  UNL227     -0.3437
    906 H           3.4093   37.9845   19.0501 H     227  UNL227      0.1146
    907 H           3.6541   37.4457   17.5338 H     227  UNL227      0.1146
    908 H           3.1689   36.4143   18.6956 H     227  UNL227      0.1146
    909 N           2.9031   36.1483   21.1124 N.3   228  UNL228     -0.3437
    910 H           3.0865   36.4389   22.0717 H     228  UNL228      0.1146
    911 H           3.3605   36.8379   20.5177 H     228  UNL228      0.1146
    912 H           3.4166   35.2782   20.9794 H     228  UNL228      0.1146
    913 N           5.7805   -0.2702    0.1255 N.3   229  UNL229     -0.3437
    914 H           5.3388   -0.7834   -0.6360 H     229  UNL229      0.1146
    915 H           6.5061   -0.8835    0.4939 H     229  UNL229      0.1146
    916 H           6.2680    0.5122   -0.3087 H     229  UNL229      0.1146
    917 N           5.5305   -0.2640    2.6505 N.3   230  UNL230     -0.3437
    918 H           5.0888    0.4988    3.1618 H     230  UNL230      0.1146
    919 H           6.2561    0.1649    2.0778 H     230  UNL230      0.1146
    920 H           6.0180   -0.8245    3.3479 H     230  UNL230      0.1146
    921 N           5.6745   -0.3514    5.4288 N.3   231  UNL231     -0.3437
    922 H           5.5864   -0.5036    6.4325 H     231  UNL231      0.1146
    923 H           4.7800    0.0291    5.1228 H     231  UNL231      0.1146
    924 H           6.3526    0.4010    5.3172 H     231  UNL231      0.1146
    925 N           3.9582   -0.1293    7.7773 N.3   232  UNL232     -0.3437
    926 H           3.1522   -0.1792    8.3987 H     232  UNL232      0.1146
    927 H           4.7770   -0.0845    8.3822 H     232  UNL232      0.1146
    928 H           4.0061   -1.0318    7.3064 H     232  UNL232      0.1146
    929 N           5.6899   -0.5732   10.2785 N.3   233  UNL233     -0.3437
    930 H           4.8072   -1.0815   10.3068 H     233  UNL233      0.1146
    931 H           6.1049   -0.6792   11.2031 H     233  UNL233      0.1146
    932 H           6.2917   -1.0908    9.6395 H     233  UNL233      0.1146
    933 N           5.2637   -0.3281   13.2796 N.3   234  UNL234     -0.3437
    934 H           4.7378   -1.0435   12.7795 H     234  UNL234      0.1146
    935 H           6.2455   -0.5848   13.1867 H     234  UNL234      0.1146
    936 H           5.1465    0.5316   12.7453 H     234  UNL234      0.1146
    937 N           4.6484   -0.6170   15.7185 N.3   235  UNL235     -0.3437
    938 H           5.6064   -0.8008   15.4238 H     235  UNL235      0.1146
    939 H           4.5949   -0.9037   16.6949 H     235  UNL235      0.1146
    940 H           4.5438    0.3966   15.7173 H     235  UNL235      0.1146
    941 N           5.7382    0.0044   18.6404 N.3   236  UNL236     -0.3437
    942 H           4.7833    0.2125   18.3519 H     236  UNL236      0.1146
    943 H           5.6693   -0.7632   19.3070 H     236  UNL236      0.1146
    944 H           6.2029   -0.3785   17.8183 H     236  UNL236      0.1146
    945 N           5.7273    0.1361   22.0745 N.3   237  UNL237     -0.3437
    946 H           5.0930    0.8328   22.4627 H     237  UNL237      0.1146
    947 H           5.8655   -0.5577   22.8080 H     237  UNL237      0.1146
    948 H           5.2078   -0.3360   21.3358 H     237  UNL237      0.1146
    949 N           5.8989    3.4355    0.7091 N.3   238  UNL238     -0.3437
    950 H           4.9347    3.5781    0.4120 H     238  UNL238      0.1146
    951 H           6.0809    2.4385    0.6035 H     238  UNL238      0.1146
    952 H           6.4791    3.9021    0.0134 H     238  UNL238      0.1146
    953 N           6.2154    2.3722    3.1399 N.3   239  UNL239     -0.3437
    954 H           5.6694    2.1536    2.3077 H     239  UNL239      0.1146
    955 H           5.5789    2.8509    3.7757 H     239  UNL239      0.1146
    956 H           6.4299    1.4776    3.5781 H     239  UNL239      0.1146
    957 N           5.7251    2.5267    6.4886 N.3   240  UNL240     -0.3437
    958 H           6.1412    1.6425    6.7776 H     240  UNL240      0.1146
    959 H           6.4491    3.2325    6.6154 H     240  UNL240      0.1146
    960 H           5.5782    2.4526    5.4830 H     240  UNL240      0.1146
    961 N           5.8318    2.5610    8.9381 N.3   241  UNL241     -0.3437
    962 H           4.9496    2.8516    9.3571 H     241  UNL241      0.1146
    963 H           6.5225    3.2506    9.2311 H     241  UNL241      0.1146
    964 H           6.0897    1.6909    9.4016 H     241  UNL241      0.1146
    965 N           5.7805    2.0959   11.5535 N.3   242  UNL242     -0.3437
    966 H           5.3388    1.4178   10.9344 H     242  UNL242      0.1146
    967 H           6.5061    1.5866   12.0560 H     242  UNL242      0.1146
    968 H           6.2680    2.7540   10.9472 H     242  UNL242      0.1146
    969 N           5.6555    2.7922   13.8694 N.3   243  UNL243     -0.3437
    970 H           5.2138    3.5977   14.3102 H     243  UNL243      0.1146
    971 H           6.3811    3.1679   13.2605 H     243  UNL243      0.1146
    972 H           6.1430    2.2965   14.6144 H     243  UNL243      0.1146
    973 N           5.6555    1.6682   17.0499 N.3   244  UNL244     -0.3437
    974 H           5.2138    2.2350   16.3274 H     244  UNL244      0.1146
    975 H           6.3811    1.1291   16.5795 H     244  UNL244      0.1146
    976 H           6.1430    2.3219   17.6609 H     244  UNL244      0.1146
    977 N           5.0099    2.8319   19.9591 N.3   245  UNL245     -0.3437
    978 H           5.2342    2.9811   18.9763 H     245  UNL245      0.1146
    979 H           4.0525    2.4832   19.9789 H     245  UNL245      0.1146
    980 H           5.5970    2.0580   20.2668 H     245  UNL245      0.1146
    981 N           5.7805    5.9779   -0.4703 N.3   246  UNL246     -0.3437
    982 H           5.3388    5.1061   -0.7588 H     246  UNL246      0.1146
    983 H           6.5061    5.7180    0.1963 H     246  UNL246      0.1146
    984 H           6.2680    6.3313   -1.2924 H     246  UNL246      0.1146
    985 N           5.9637    5.0395    2.4124 N.3   247  UNL247     -0.3437
    986 H           5.8641    5.9684    2.8194 H     247  UNL247      0.1146
    987 H           6.5307    4.5046    3.0688 H     247  UNL247      0.1146
    988 H           5.0351    4.6208    2.4374 H     247  UNL247      0.1146
    989 N           5.3621    4.7583    5.0577 N.3   248  UNL248     -0.3437
    990 H           4.7407    4.8370    4.2540 H     248  UNL248      0.1146
    991 H           6.2683    5.1060    4.7472 H     248  UNL248      0.1146
    992 H           5.0225    5.4322    5.7424 H     248  UNL248      0.1146
    993 N           5.4518    5.3193    8.0771 N.3   249  UNL249     -0.3437
    994 H           5.6356    4.3595    7.7886 H     249  UNL249      0.1146
    995 H           6.1848    5.5575    8.7437 H     249  UNL249      0.1146
    996 H           5.6213    5.8971    7.2550 H     249  UNL249      0.1146
    997 N           5.3837    4.9856   10.8593 N.3   250  UNL250     -0.3437
    998 H           4.7738    5.7202   11.2151 H     250  UNL250      0.1146
    999 H           5.1936    4.1622   11.4288 H     250  UNL250      0.1146
   1000 H           5.0425    4.7654    9.9247 H     250  UNL250      0.1146
   1001 N           5.7805    5.6029   13.3588 N.3   251  UNL251     -0.3437
   1002 H           5.3388    4.7311   13.0703 H     251  UNL251      0.1146
   1003 H           6.5061    5.3430   14.0254 H     251  UNL251      0.1146
   1004 H           6.2680    5.9563   12.5367 H     251  UNL251      0.1146
   1005 N           5.5712    5.0762   16.1384 N.3   252  UNL252     -0.3437
   1006 H           4.9942    5.1714   15.3039 H     252  UNL252      0.1146
   1007 H           5.9898    4.1486   16.0861 H     252  UNL252      0.1146
   1008 H           6.3385    5.7372   16.0262 H     252  UNL252      0.1146
   1009 N           5.5433    5.2754   18.4614 N.3   253  UNL253     -0.3437
   1010 H           5.0560    5.6012   19.2949 H     253  UNL253      0.1146
   1011 H           6.0067    6.0937   18.0690 H     253  UNL253      0.1146
   1012 H           6.2875    4.6631   18.7925 H     253  UNL253      0.1146
   1013 N           5.0662    4.6478   22.2575 N.3   254  UNL254     -0.3437
   1014 H           5.6747    4.0543   22.8194 H     254  UNL254      0.1146
   1015 H           5.4608    5.5858   22.3116 H     254  UNL254      0.1146
   1016 H           5.1919    4.3455   21.2926 H     254  UNL254      0.1146
   1017 N           4.1555    8.1105    2.8652 N.3   255  UNL255     -0.3437
   1018 H           3.7138    7.4323    2.2461 H     255  UNL255      0.1146
   1019 H           4.8811    7.6011    3.3677 H     255  UNL255      0.1146
   1020 H           4.6430    8.7686    2.2589 H     255  UNL255      0.1146
   1021 N           5.7018    8.0141    5.4363 N.3   256  UNL256     -0.3437
   1022 H           5.8856    7.0542    5.1478 H     256  UNL256      0.1146
   1023 H           6.4348    8.2523    6.1029 H     256  UNL256      0.1146
   1024 H           5.8713    8.5918    4.6142 H     256  UNL256      0.1146
   1025 N           5.2805    7.9859    8.0650 N.3   257  UNL257     -0.3437
   1026 H           4.8388    7.7734    7.1717 H     257  UNL257      0.1146
   1027 H           6.0061    7.2821    8.1940 H     257  UNL257      0.1146
   1028 H           5.7680    8.8710    7.9338 H     257  UNL257      0.1146
   1029 N           5.5985    8.1800   10.5074 N.3   258  UNL258     -0.3437
   1030 H           6.3787    8.4354   11.1110 H     258  UNL258      0.1146
   1031 H           5.5104    8.9342    9.8278 H     258  UNL258      0.1146
   1032 H           5.9059    7.3629    9.9817 H     258  UNL258      0.1146
   1033 N           5.2334    8.2406   13.1752 N.3   259  UNL259     -0.3437
   1034 H           5.6598    7.7642   12.3818 H     259  UNL259      0.1146
   1035 H           4.5387    7.5960   13.5497 H     259  UNL259      0.1146
   1036 H           5.9616    8.3118   13.8845 H     259  UNL259      0.1146
   1037 N           5.6720    7.8392   16.2496 N.3   260  UNL260     -0.3437
   1038 H           6.4825    8.3854   15.9611 H     260  UNL260      0.1146
   1039 H           5.1650    8.4197   16.9162 H     260  UNL260      0.1146
   1040 H           5.0741    7.7681   15.4275 H     260  UNL260      0.1146
   1041 N           3.8029    7.3073   18.5517 N.3   261  UNL261     -0.3437
   1042 H           4.5029    7.3281   19.2919 H     261  UNL261      0.1146
   1043 H           2.9374    6.9989   18.9922 H     261  UNL261      0.1146
   1044 H           3.6504    8.2781   18.2820 H     261  UNL261      0.1146
   1045 N           5.7097    8.2006   22.1760 N.3   262  UNL262     -0.3437
   1046 H           6.4416    8.4912   22.8227 H     262  UNL262      0.1146
   1047 H           5.7078    8.8902   21.4257 H     262  UNL262      0.1146
   1048 H           6.0346    7.3305   21.7567 H     262  UNL262      0.1146
   1049 N           6.1624   10.9000   -0.5006 N.3   263  UNL263     -0.3437
   1050 H           6.2796    9.8887   -0.4586 H     263  UNL263      0.1146
   1051 H           7.0981   11.2950   -0.4170 H     263  UNL263      0.1146
   1052 H           5.8535   11.1079   -1.4491 H     263  UNL263      0.1146
   1053 N           5.4446   10.9273    2.6575 N.3   264  UNL264     -0.3437
   1054 H           6.0058   10.1999    3.0983 H     264  UNL264      0.1146
   1055 H           5.9363   11.8034    2.8280 H     264  UNL264      0.1146
   1056 H           5.5069   10.7609    1.6542 H     264  UNL264      0.1146
   1057 N           5.8874   10.7789    5.5472 N.3   265  UNL265     -0.3437
   1058 H           6.4185   10.1816    4.9151 H     265  UNL265      0.1146
   1059 H           5.4859   11.5146    4.9676 H     265  UNL265      0.1146
   1060 H           5.1018   10.2165    5.8713 H     265  UNL265      0.1146
   1061 N           4.6555   11.1175    8.0771 N.3   266  UNL266     -0.3437
   1062 H           4.2138   10.2457    7.7886 H     266  UNL266      0.1146
   1063 H           5.3811   10.8576    8.7437 H     266  UNL266      0.1146
   1064 H           5.1430   11.4708    7.2550 H     266  UNL266      0.1146
   1065 N           3.8632   10.9565   10.8307 N.3   267  UNL267     -0.3437
   1066 H           4.8511   10.7379   10.9516 H     267  UNL267      0.1146
   1067 H           3.7891   11.4352    9.9342 H     267  UNL267      0.1146
   1068 H           3.3901   10.0619   10.7114 H     267  UNL267      0.1146
   1069 N           5.7805   10.7589   13.2046 N.3   268  UNL268     -0.3437
   1070 H           5.3388   10.2457   12.4431 H     268  UNL268      0.1146
   1071 H           6.5061   10.1456   13.5730 H     268  UNL268      0.1146
   1072 H           6.2680   11.5413   12.7704 H     268  UNL268      0.1146
   1073 N           5.7229   10.5793   15.9022 N.3   269  UNL269     -0.3437
   1074 H           5.9237   10.0807   16.7679 H     269  UNL269      0.1146
   1075 H           6.5400   11.1590   15.7160 H     269  UNL269      0.1146
   1076 H           5.7069    9.8726   15.1683 H     269  UNL269      0.1146
   1077 N           4.4300   10.8170   18.6243 N.3   270  UNL270     -0.3437
   1078 H           4.8264   10.0215   18.1259 H     270  UNL270      0.1146
   1079 H           4.7205   10.7131   19.5955 H     270  UNL270      0.1146
   1080 H           4.9167   11.6400   18.2721 H     270  UNL270      0.1146
   1081 N           5.5718   11.2874   22.0667 N.3   271  UNL271     -0.3437
   1082 H           5.7095   10.6938   22.8834 H     271  UNL271      0.1146
   1083 H           5.8509   12.2253   22.3508 H     271  UNL271      0.1146
   1084 H           6.2615   10.9850   21.3802 H     271  UNL271      0.1146
   1085 N           4.8044   13.1344    0.7102 N.3   272  UNL272     -0.3437
   1086 H           5.2427   14.0473    0.5968 H     272  UNL272      0.1146
   1087 H           5.0991   12.5797   -0.0923 H     272  UNL272      0.1146
   1088 H           5.2474   12.7092    1.5234 H     272  UNL272      0.1146
   1089 N           5.7018   14.0263    3.6755 N.3   273  UNL273     -0.3437
   1090 H           5.7789   13.8077    2.6832 H     273  UNL273      0.1146
   1091 H           4.8094   14.5050    3.7892 H     273  UNL273      0.1146
   1092 H           5.6035   13.1317    4.1534 H     273  UNL273      0.1146
   1093 N           5.7068   13.7151    6.0473 N.3   274  UNL274     -0.3437
   1094 H           4.8246   14.0057    6.4663 H     274  UNL274      0.1146
   1095 H           6.3975   14.4047    6.3403 H     274  UNL274      0.1146
   1096 H           5.9647   12.8450    6.5108 H     274  UNL274      0.1146
   1097 N           5.8340   13.8401    8.7547 N.3   275  UNL275     -0.3437
   1098 H           6.5336   14.1307    8.0731 H     275  UNL275      0.1146
   1099 H           5.0857   14.5297    8.7007 H     275  UNL275      0.1146
   1100 H           5.4402   12.9700    8.3994 H     275  UNL275      0.1146
   1101 N           5.6670   13.4664   11.0865 N.3   276  UNL276     -0.3437
   1102 H           5.1456   12.6663   11.4419 H     276  UNL276      0.1146
   1103 H           5.0920   14.2850   11.2805 H     276  UNL276      0.1146
   1104 H           6.4891   13.5530   11.6823 H     276  UNL276      0.1146
   1105 N           5.8077   13.0705   14.2706 N.3   277  UNL277     -0.3437
   1106 H           6.1734   13.9589   14.6103 H     277  UNL277      0.1146
   1107 H           5.3421   12.6358   15.0660 H     277  UNL277      0.1146
   1108 H           5.0703   13.3055   13.6076 H     277  UNL277      0.1146
   1109 N           5.5305   13.8219   17.4987 N.3   278  UNL278     -0.3437
   1110 H           5.0888   13.8284   16.5805 H     278  UNL278      0.1146
   1111 H           6.2561   13.1076   17.4563 H     278  UNL278      0.1146
   1112 H           6.0180   14.7128   17.5822 H     278  UNL278      0.1146
   1113 N           5.7805   13.8401   20.0729 N.3   279  UNL279     -0.3437
   1114 H           5.3388   14.1307   20.9440 H     279  UNL279      0.1146
   1115 H           6.5061   14.5297   19.8822 H     279  UNL279      0.1146
   1116 H           6.2680   12.9700   20.2818 H     279  UNL279      0.1146
   1117 N           5.6555   15.9674   -0.4985 N.3   280  UNL280     -0.3437
   1118 H           5.2138   16.8857   -0.5072 H     280  UNL280      0.1146
   1119 H           6.3811   15.9980   -1.2133 H     280  UNL280      0.1146
   1120 H           6.1430   15.8987    0.3937 H     280  UNL280      0.1146
   1121 N           5.8884   16.3220    2.2765 N.3   281  UNL281     -0.3437
   1122 H           6.4817   15.5196    2.4830 H     281  UNL281      0.1146
   1123 H           5.1024   16.2637    2.9224 H     281  UNL281      0.1146
   1124 H           6.4211   17.1445    2.5561 H     281  UNL281      0.1146
   1125 N           5.8029   16.0167    5.2225 N.3   282  UNL282     -0.3437
   1126 H           6.5029   16.0375    5.9628 H     282  UNL282      0.1146
   1127 H           4.9374   15.7082    5.6631 H     282  UNL282      0.1146
   1128 H           5.6504   16.9874    4.9529 H     282  UNL282      0.1146
   1129 N           5.4871   16.7503    7.7384 N.3   283  UNL283     -0.3437
   1130 H           4.8657   17.0732    8.4786 H     283  UNL283      0.1146
   1131 H           6.3933   16.5980    8.1789 H     283  UNL283      0.1146
   1132 H           5.1475   15.8283    7.4687 H     283  UNL283      0.1146
   1133 N           5.5305   16.4688   10.3216 N.3   284  UNL284     -0.3437
   1134 H           5.0888   15.9702   11.0927 H     284  UNL284      0.1146
   1135 H           6.2561   17.0486   10.7409 H     284  UNL284      0.1146
   1136 H           6.0180   15.7621    9.7727 H     284  UNL284      0.1146
   1137 N           5.6555   15.8820   13.3588 N.3   285  UNL285     -0.3437
   1138 H           5.2138   15.0102   13.0703 H     285  UNL285      0.1146
   1139 H           6.3811   15.6221   14.0254 H     285  UNL285      0.1146
   1140 H           6.1430   16.2354   12.5367 H     285  UNL285      0.1146
   1141 N           5.0551   16.4667   15.7856 N.3   286  UNL286     -0.3437
   1142 H           5.4676   17.1201   15.1213 H     286  UNL286      0.1146
   1143 H           5.3364   15.5372   15.4769 H     286  UNL286      0.1146
   1144 H           5.5345   16.6257   16.6706 H     286  UNL286      0.1146
   1145 N           5.0305   16.6320   19.1404 N.3   287  UNL287     -0.3437
   1146 H           4.5888   15.7602   18.8519 H     287  UNL287      0.1146
   1147 H           5.7561   16.3721   19.8070 H     287  UNL287      0.1146
   1148 H           5.5180   16.9854   18.3183 H     287  UNL287      0.1146
   1149 N           5.3218   16.3721   22.3806 N.3   288  UNL288     -0.3437
   1150 H           5.4595   16.4926   21.3782 H     288  UNL288      0.1146
   1151 H           5.6009   15.4145   22.5894 H     288  UNL288      0.1146
   1152 H           6.0115   16.9706   22.8328 H     288  UNL288      0.1146
   1153 N           5.6555   19.3547   -0.1787 N.3   289  UNL289     -0.3437
   1154 H           5.2138   19.6453    0.6924 H     289  UNL289      0.1146
   1155 H           6.3811   20.0443   -0.3694 H     289  UNL289      0.1146
   1156 H           6.1430   18.4846    0.0302 H     289  UNL289      0.1146
   1157 N           3.7805   19.3714    2.3668 N.3   290  UNL290     -0.3437
   1158 H           3.3388   19.0685    3.2337 H     290  UNL290      0.1146
   1159 H           4.5061   20.0336    2.6377 H     290  UNL290      0.1146
   1160 H           4.2680   18.5553    1.9998 H     290  UNL290      0.1146
   1161 N           5.6555   19.3494    5.1663 N.3   291  UNL291     -0.3437
   1162 H           5.2138   20.1122    5.6776 H     291  UNL291      0.1146
   1163 H           6.3811   19.7783    4.5936 H     291  UNL291      0.1146
   1164 H           6.1430   18.7889    5.8638 H     291  UNL291      0.1146
   1165 N           5.6555   19.3494    7.8071 N.3   292  UNL292     -0.3437
   1166 H           5.2138   20.1122    8.3185 H     292  UNL292      0.1146
   1167 H           6.3811   19.7783    7.2344 H     292  UNL292      0.1146
   1168 H           6.1430   18.7889    8.5046 H     292  UNL292      0.1146
   1169 N           5.6555   19.4797   10.3846 N.3   293  UNL293     -0.3437
   1170 H           5.2138   19.7703   11.2557 H     293  UNL293      0.1146
   1171 H           6.3811   20.1693   10.1939 H     293  UNL293      0.1146
   1172 H           6.1430   18.6096   10.5935 H     293  UNL293      0.1146
   1173 N           5.6555   19.3494   13.0888 N.3   294  UNL294     -0.3437
   1174 H           5.2138   20.1122   13.6001 H     294  UNL294      0.1146
   1175 H           6.3811   19.7783   12.5161 H     294  UNL294      0.1146
   1176 H           6.1430   18.7889   13.7862 H     294  UNL294      0.1146
   1177 N           5.5305   19.2244   15.8546 N.3   295  UNL295     -0.3437
   1178 H           5.0888   19.9872   16.3659 H     295  UNL295      0.1146
   1179 H           6.2561   19.6533   15.2819 H     295  UNL295      0.1146
   1180 H           6.0180   18.6639   16.5521 H     295  UNL295      0.1146
   1181 N           5.5896   19.3806   18.9633 N.3   296  UNL296     -0.3437
   1182 H           5.5035   20.1047   19.6751 H     296  UNL296      0.1146
   1183 H           6.0267   19.8281   18.1588 H     296  UNL296      0.1146
   1184 H           6.2738   18.7154   19.3206 H     296  UNL296      0.1146
   1185 N           5.0305   19.4655   22.2127 N.3   297  UNL297     -0.3437
   1186 H           4.5888   18.6955   22.7132 H     297  UNL297      0.1146
   1187 H           5.7561   19.8236   22.8321 H     297  UNL297      0.1146
   1188 H           5.5180   19.0443   21.4232 H     297  UNL297      0.1146
   1189 N           5.5001   22.1745   -0.4811 N.3   298  UNL298     -0.3437
   1190 H           5.4615   22.4651   -1.4570 H     298  UNL298      0.1146
   1191 H           4.9594   22.8641    0.0389 H     298  UNL298      0.1146
   1192 H           4.9726   21.3044   -0.4261 H     298  UNL298      0.1146
   1193 N           5.6548   21.6680    2.9240 N.3   299  UNL299     -0.3437
   1194 H           5.3249   21.2409    2.0596 H     299  UNL299      0.1146
   1195 H           6.6594   21.7943    2.8093 H     299  UNL299      0.1146
   1196 H           5.2545   22.6048    2.9450 H     299  UNL299      0.1146
   1197 N           5.4055   22.5495    5.1030 N.3   300  UNL300     -0.3437
   1198 H           4.9638   22.8401    5.9741 H     300  UNL300      0.1146
   1199 H           6.1311   23.2391    4.9123 H     300  UNL300      0.1146
   1200 H           5.8930   21.6794    5.3119 H     300  UNL300      0.1146
   1201 N           5.6750   22.5517    8.0085 N.3   301  UNL301     -0.3437
   1202 H           5.1660   21.8245    8.5090 H     301  UNL301      0.1146
   1203 H           6.4298   22.8433    8.6280 H     301  UNL301      0.1146
   1204 H           6.1227   22.0885    7.2190 H     301  UNL301      0.1146
   1205 N           5.9111   22.4245   10.5053 N.3   302  UNL302     -0.3437
   1206 H           4.9794   22.7151   10.2123 H     302  UNL302      0.1146
   1207 H           6.2181   23.1141   11.1899 H     302  UNL302      0.1146
   1208 H           5.7849   21.5544   11.0204 H     302  UNL302      0.1146
   1209 N           5.5305   22.7080   13.1911 N.3   303  UNL303     -0.3437
   1210 H           5.0888   22.3285   14.0273 H     303  UNL303      0.1146
   1211 H           6.2561   23.3432   13.5204 H     303  UNL303      0.1146
   1212 H           6.0180   21.9282   12.7524 H     303  UNL303      0.1146
   1213 N           5.6555   22.4192   15.7296 N.3   304  UNL304     -0.3437
   1214 H           5.2138   23.1820   16.2409 H     304  UNL304      0.1146
   1215 H           6.3811   22.8481   15.1569 H     304  UNL304      0.1146
   1216 H           6.1430   21.8587   16.4271 H     304  UNL304      0.1146
   1217 N           5.6400   22.4245   18.2868 N.3   305  UNL305     -0.3437
   1218 H           4.6858   22.7151   18.0786 H     305  UNL305      0.1146
   1219 H           6.0072   23.1141   18.9411 H     305  UNL305      0.1146
   1220 H           5.5605   21.5544   18.8112 H     305  UNL305      0.1146
   1221 N           5.7452   21.7823   21.0369 N.3   306  UNL306     -0.3437
   1222 H           5.5339   22.1357   21.9691 H     306  UNL306      0.1146
   1223 H           5.0112   22.1407   20.4277 H     306  UNL306      0.1146
   1224 H           6.6033   22.2493   20.7474 H     306  UNL306      0.1146
   1225 N           3.3100   25.0832   -0.4442 N.3   307  UNL307     -0.3437
   1226 H           3.5210   25.8324   -1.1019 H     307  UNL307      0.1146
   1227 H           3.8773   24.2876   -0.7334 H     307  UNL307      0.1146
   1228 H           3.6854   25.3840    0.4541 H     307  UNL307      0.1146
   1229 N           5.8616   24.2646    2.6770 N.3   308  UNL308     -0.3437
   1230 H           5.6817   25.2317    2.4112 H     308  UNL308      0.1146
   1231 H           6.1951   23.7990    1.8341 H     308  UNL308      0.1146
   1232 H           6.6552   24.2917    3.3156 H     308  UNL308      0.1146
   1233 N           5.1555   25.4664    5.3113 N.3   309  UNL309     -0.3437
   1234 H           4.7138   24.5946    5.0228 H     309  UNL309      0.1146
   1235 H           5.8811   25.2064    5.9779 H     309  UNL309      0.1146
   1236 H           5.6430   25.8197    4.4892 H     309  UNL309      0.1146
   1237 N           6.3915   24.9045    8.0841 N.3   310  UNL310     -0.3437
   1238 H           5.4157   24.6921    8.2868 H     310  UNL310      0.1146
   1239 H           6.6990   24.2008    7.4144 H     310  UNL310      0.1146
   1240 H           6.3873   25.7897    7.5793 H     310  UNL310      0.1146
   1241 N           6.0784   25.2073   10.6136 N.3   311  UNL311     -0.3437
   1242 H           5.9931   24.6547   11.4655 H     311  UNL311      0.1146
   1243 H           6.1347   24.5368    9.8483 H     311  UNL311      0.1146
   1244 H           5.1873   25.6884   10.5005 H     311  UNL311      0.1146
   1245 N           5.7501   25.8692   13.5980 N.3   312  UNL312     -0.3437
   1246 H           5.7115   26.1598   12.6221 H     312  UNL312      0.1146
   1247 H           5.2094   26.5588   14.1180 H     312  UNL312      0.1146
   1248 H           5.2226   24.9991   13.6531 H     312  UNL312      0.1146
   1249 N           5.4733   25.7401   16.5304 N.3   313  UNL313     -0.3437
   1250 H           6.1073   25.5547   17.3063 H     313  UNL313      0.1146
   1251 H           5.3093   26.7458   16.5357 H     313  UNL313      0.1146
   1252 H           6.0036   25.5465   15.6820 H     313  UNL313      0.1146
   1253 N           5.0407   24.9375   18.5042 N.3   314  UNL314     -0.3437
   1254 H           5.8660   25.1081   19.0770 H     314  UNL314      0.1146
   1255 H           4.4896   24.2424   19.0057 H     314  UNL314      0.1146
   1256 H           4.4973   25.7991   18.5309 H     314  UNL314      0.1146
   1257 N           5.4346   24.5263   21.3315 N.3   315  UNL315     -0.3437
   1258 H           4.8457   25.1978   20.8409 H     315  UNL315      0.1146
   1259 H           4.8034   23.9569   21.8934 H     315  UNL315      0.1146
   1260 H           5.8099   23.9061   20.6154 H     315  UNL315      0.1146
   1261 N           5.7303   27.8467   -0.4805 N.3   316  UNL316     -0.3437
   1262 H           4.8209   27.3890   -0.5244 H     316  UNL316      0.1146
   1263 H           5.9384   27.9635    0.5102 H     316  UNL316      0.1146
   1264 H           6.4040   27.1670   -0.8306 H     316  UNL316      0.1146
   1265 N           5.6555   27.3979    2.6722 N.3   317  UNL317     -0.3437
   1266 H           5.2138   28.0848    2.0627 H     317  UNL317      0.1146
   1267 H           6.3811   26.9516    2.1129 H     317  UNL317      0.1146
   1268 H           6.1430   27.9319    3.3902 H     317  UNL317      0.1146
   1269 N           4.4515   27.9494    5.0310 N.3   318  UNL318     -0.3437
   1270 H           4.0591   27.1362    5.5034 H     318  UNL318      0.1146
   1271 H           3.9667   28.7589    5.4159 H     318  UNL318      0.1146
   1272 H           5.4163   28.0216    5.3509 H     318  UNL318      0.1146
   1273 N           5.7243   28.0847    7.3071 N.3   319  UNL319     -0.3437
   1274 H           5.8414   28.9583    7.8185 H     319  UNL319      0.1146
   1275 H           6.5607   27.9802    6.7344 H     319  UNL319      0.1146
   1276 H           5.7671   27.3430    8.0046 H     319  UNL319      0.1146
   1277 N           5.2805   28.6890    9.7596 N.3   320  UNL320     -0.3437
   1278 H           4.8388   28.9796   10.6307 H     320  UNL320      0.1146
   1279 H           6.0061   29.3786    9.5689 H     320  UNL320      0.1146
   1280 H           5.7680   27.8189    9.9685 H     320  UNL320      0.1146
   1281 N           5.6555   28.5640   12.2755 N.3   321  UNL321     -0.3437
   1282 H           5.2138   28.8546   13.1466 H     321  UNL321      0.1146
   1283 H           6.3811   29.2536   12.0848 H     321  UNL321      0.1146
   1284 H           6.1430   27.6939   12.4844 H     321  UNL321      0.1146
   1285 N           5.8596   28.6638   16.9296 N.3   322  UNL322     -0.3437
   1286 H           6.5627   27.9304   17.0066 H     322  UNL322      0.1146
   1287 H           6.3305   29.5319   17.1809 H     322  UNL322      0.1146
   1288 H           5.6407   28.7401   15.9373 H     322  UNL322      0.1146
   1289 N           5.3600   27.7383   19.3823 N.3   323  UNL323     -0.3437
   1290 H           4.6487   27.5760   20.0937 H     323  UNL323      0.1146
   1291 H           5.8584   28.5793   19.6701 H     323  UNL323      0.1146
   1292 H           6.0264   26.9726   19.4717 H     323  UNL323      0.1146
   1293 N           5.6968   27.0810   22.0667 N.3   324  UNL324     -0.3437
   1294 H           5.8345   26.4875   22.8834 H     324  UNL324      0.1146
   1295 H           5.9759   28.0190   22.3508 H     324  UNL324      0.1146
   1296 H           6.3865   26.7787   21.3802 H     324  UNL324      0.1146
   1297 N           5.7805   31.0455   -0.3981 N.3   325  UNL325     -0.3437
   1298 H           5.3388   31.6663    0.2786 H     325  UNL325      0.1146
   1299 H           6.5061   31.5972   -0.8536 H     325  UNL325      0.1146
   1300 H           6.2680   30.3364    0.1477 H     325  UNL325      0.1146
   1301 N           5.5305   30.7588    2.3372 N.3   326  UNL326     -0.3437
   1302 H           5.0888   31.0494    3.2083 H     326  UNL326      0.1146
   1303 H           6.2561   31.4484    2.1465 H     326  UNL326      0.1146
   1304 H           6.0180   29.8887    2.5461 H     326  UNL326      0.1146
   1305 N           5.4382   30.3577    5.2693 N.3   327  UNL327     -0.3437
   1306 H           5.6496   31.3533    5.3189 H     327  UNL327      0.1146
   1307 H           6.0586   29.9739    4.5578 H     327  UNL327      0.1146
   1308 H           5.7472   29.9604    6.1553 H     327  UNL327      0.1146
   1309 N           4.5470   30.3974    8.0771 N.3   328  UNL328     -0.3437
   1310 H           5.3575   30.9436    7.7886 H     328  UNL328      0.1146
   1311 H           4.0400   30.9779    8.7437 H     328  UNL328      0.1146
   1312 H           3.9491   30.3263    7.2550 H     328  UNL328      0.1146
   1313 N           5.6555   31.9809   10.7180 N.3   329  UNL329     -0.3437
   1314 H           5.2138   31.1091   10.4295 H     329  UNL329      0.1146
   1315 H           6.3811   31.7210   11.3846 H     329  UNL329      0.1146
   1316 H           6.1430   32.3343    9.8959 H     329  UNL329      0.1146
   1317 N           5.5305   30.7941   13.3467 N.3   330  UNL330     -0.3437
   1318 H           5.0888   30.5816   12.4533 H     330  UNL330      0.1146
   1319 H           6.2561   30.0903   13.4757 H     330  UNL330      0.1146
   1320 H           6.0180   31.6792   13.2155 H     330  UNL330      0.1146
   1321 N           5.4300   31.6580   15.7281 N.3   331  UNL331     -0.3437
   1322 H           5.8264   30.7238   15.8204 H     331  UNL331      0.1146
   1323 H           5.7205   32.1698   16.5600 H     331  UNL331      0.1146
   1324 H           5.9167   32.0937   14.9460 H     331  UNL331      0.1146
   1325 N           5.7152   30.7577   18.9567 N.3   332  UNL332     -0.3437
   1326 H           5.0748   30.2286   19.5469 H     332  UNL332      0.1146
   1327 H           5.1734   31.0479   18.1440 H     332  UNL332      0.1146
   1328 H           5.9302   31.6111   19.4702 H     332  UNL332      0.1146
   1329 N           5.0718   30.6340   21.8840 N.3   333  UNL333     -0.3437
   1330 H           5.2095   29.6941   21.5151 H     333  UNL333      0.1146
   1331 H           5.3509   30.5950   22.8633 H     333  UNL333      0.1146
   1332 H           5.7615   31.2222   21.4186 H     333  UNL333      0.1146
   1333 N           6.1030   33.4100    2.6694 N.3   334  UNL334     -0.3437
   1334 H           6.2219   32.8147    3.4879 H     334  UNL334      0.1146
   1335 H           5.4193   32.9405    2.0775 H     334  UNL334      0.1146
   1336 H           5.6494   34.2592    3.0032 H     334  UNL334      0.1146
   1337 N           5.5184   34.5021    5.3554 N.3   335  UNL335     -0.3437
   1338 H           5.9143   35.0614    4.6013 H     335  UNL335      0.1146
   1339 H           5.1538   33.6575    4.9171 H     335  UNL335      0.1146
   1340 H           6.3070   34.2034    5.9275 H     335  UNL335      0.1146
   1341 N           5.5305   33.5786    7.8688 N.3   336  UNL336     -0.3437
   1342 H           5.0888   33.8692    8.7399 H     336  UNL336      0.1146
   1343 H           6.2561   34.2682    7.6781 H     336  UNL336      0.1146
   1344 H           6.0180   32.7085    8.0777 H     336  UNL336      0.1146
   1345 N           5.9399   34.6280   10.7180 N.3   337  UNL337     -0.3437
   1346 H           5.0572   34.2085   10.4295 H     337  UNL337      0.1146
   1347 H           6.3549   33.9785   11.3846 H     337  UNL337      0.1146
   1348 H           6.5417   34.6093    9.8959 H     337  UNL337      0.1146
   1349 N           5.6555   33.8639   13.5967 N.3   338  UNL338     -0.3437
   1350 H           5.2138   33.6514   12.7033 H     338  UNL338      0.1146
   1351 H           6.3811   33.1601   13.7257 H     338  UNL338      0.1146
   1352 H           6.1430   34.7490   13.4655 H     338  UNL338      0.1146
   1353 N           4.3825   35.0503   15.6737 N.3   339  UNL339     -0.3437
   1354 H           4.0832   35.6846   16.4130 H     339  UNL339      0.1146
   1355 H           4.7395   35.6412   14.9242 H     339  UNL339      0.1146
   1356 H           5.1883   34.5482   16.0436 H     339  UNL339      0.1146
   1357 N           4.9878   33.9421   18.3731 N.3   340  UNL340     -0.3437
   1358 H           5.6666   33.4289   17.8126 H     340  UNL340      0.1146
   1359 H           4.7432   33.3288   19.1492 H     340  UNL340      0.1146
   1360 H           5.4960   34.7245   18.7829 H     340  UNL340      0.1146
   1361 N           4.3162   33.3456   22.2575 N.3   341  UNL341     -0.3437
   1362 H           4.9247   32.7520   22.8194 H     341  UNL341      0.1146
   1363 H           4.7108   34.2835   22.3116 H     341  UNL341      0.1146
   1364 H           4.4419   33.0432   21.2926 H     341  UNL341      0.1146
   1365 N           5.5993   37.1690   -0.8654 N.3   342  UNL342     -0.3437
   1366 H           5.7164   38.0426   -0.3540 H     342  UNL342      0.1146
   1367 H           6.4357   37.0645   -1.4381 H     342  UNL342      0.1146
   1368 H           5.6421   36.4274   -0.1679 H     342  UNL342      0.1146
   1369 N           5.4407   37.2047    2.6408 N.3   343  UNL343     -0.3437
   1370 H           6.0917   37.5015    3.3664 H     343  UNL343      0.1146
   1371 H           5.6711   37.7548    1.8146 H     343  UNL343      0.1146
   1372 H           5.6901   36.2426    2.4161 H     343  UNL343      0.1146
   1373 N           5.5305   37.2733    5.3530 N.3   344  UNL344     -0.3437
   1374 H           5.0888   37.5639    6.2241 H     344  UNL344      0.1146
   1375 H           6.2561   37.9629    5.1623 H     344  UNL344      0.1146
   1376 H           6.0180   36.4032    5.5619 H     344  UNL344      0.1146
   1377 N           5.6555   36.4729    8.3102 N.3   345  UNL345     -0.3437
   1378 H           5.2138   36.1065    7.4682 H     345  UNL345      0.1146
   1379 H           6.3811   35.8029    8.5611 H     345  UNL345      0.1146
   1380 H           6.1430   37.3212    8.0252 H     345  UNL345      0.1146
   1381 N           5.7247   37.2733   10.7478 N.3   346  UNL346     -0.3437
   1382 H           6.3835   37.5639   10.0268 H     346  UNL346      0.1146
   1383 H           4.9745   37.9629   10.7373 H     346  UNL346      0.1146
   1384 H           5.3109   36.4032   10.4160 H     346  UNL346      0.1146
   1385 N           5.2805   37.2733   13.0255 N.3   347  UNL347     -0.3437
   1386 H           4.8388   37.5639   13.8966 H     347  UNL347      0.1146
   1387 H           6.0061   37.9629   12.8348 H     347  UNL347      0.1146
   1388 H           5.7680   36.4032   13.2344 H     347  UNL347      0.1146
   1389 N           5.6555   37.2681   15.7296 N.3   348  UNL348     -0.3437
   1390 H           5.2138   38.0308   16.2409 H     348  UNL348      0.1146
   1391 H           6.3811   37.6970   15.1569 H     348  UNL348      0.1146
   1392 H           6.1430   36.7075   16.4271 H     348  UNL348      0.1146
   1393 N           5.6555   37.2733   18.4321 N.3   349  UNL349     -0.3437
   1394 H           5.2138   37.5639   19.3032 H     349  UNL349      0.1146
   1395 H           6.3811   37.9629   18.2414 H     349  UNL349      0.1146
   1396 H           6.1430   36.4032   18.6410 H     349  UNL349      0.1146
   1397 N           5.6555   36.3983   21.0729 N.3   350  UNL350     -0.3437
   1398 H           5.2138   36.6889   21.9440 H     350  UNL350      0.1146
   1399 H           6.3811   37.0879   20.8822 H     350  UNL350      0.1146
   1400 H           6.1430   35.5282   21.2818 H     350  UNL350      0.1146
   1401 N           8.7444   -1.2459    1.7122 N.3   351  UNL351     -0.3437
   1402 H           8.2172   -1.2862    2.5833 H     351  UNL351      0.1146
   1403 H           8.8966   -0.2566    1.5215 H     351  UNL351      0.1146
   1404 H           9.6623   -1.6361    1.9211 H     351  UNL351      0.1146
   1405 N           8.4877   -0.1428    4.6159 N.3   352  UNL352     -0.3437
   1406 H           8.6620    0.3811    5.4723 H     352  UNL352      0.1146
   1407 H           7.6594   -0.7083    4.7962 H     352  UNL352      0.1146
   1408 H           8.2113    0.5452    3.9169 H     352  UNL352      0.1146
   1409 N           7.9812   -0.6421    7.7393 N.3   353  UNL353     -0.3437
   1410 H           7.2464   -0.5115    7.0455 H     353  UNL353      0.1146
   1411 H           8.2624    0.2932    8.0300 H     353  UNL353      0.1146
   1412 H           7.5304   -1.0644    8.5497 H     353  UNL353      0.1146
   1413 N           8.6301   -0.2060   10.5589 N.3   354  UNL354     -0.3437
   1414 H           7.9765   -0.1429    9.7797 H     354  UNL354      0.1146
   1415 H           8.1229    0.1248   11.3785 H     354  UNL354      0.1146
   1416 H           8.7909   -1.2007   10.7107 H     354  UNL354      0.1146
   1417 N           8.1872   -1.1901   13.1670 N.3   355  UNL355     -0.3437
   1418 H           7.7455   -0.2851   13.3226 H     355  UNL355      0.1146
   1419 H           8.9128   -1.0323   12.4691 H     355  UNL355      0.1146
   1420 H           8.6747   -1.4173   14.0325 H     355  UNL355      0.1146
   1421 N           8.1872   -0.4116   16.2496 N.3   356  UNL356     -0.3437
   1422 H           7.7455   -1.2834   15.9611 H     356  UNL356      0.1146
   1423 H           8.9128   -0.6715   16.9162 H     356  UNL356      0.1146
   1424 H           8.6747   -0.0583   15.4275 H     356  UNL356      0.1146
   1425 N           8.2954   -0.0366   19.3602 N.3   357  UNL357     -0.3437
   1426 H           7.7695   -0.9084   19.4022 H     357  UNL357      0.1146
   1427 H           9.2772   -0.2965   19.4437 H     357  UNL357      0.1146
   1428 H           8.1782    0.3167   18.4117 H     357  UNL357      0.1146
   1429 N           8.1008   -0.2513   22.0667 N.3   358  UNL358     -0.3437
   1430 H           7.6681   -0.6803   22.8834 H     358  UNL358      0.1146
   1431 H           9.0456    0.0039   22.3508 H     358  UNL358      0.1146
   1432 H           8.2059   -0.9971   21.3802 H     358  UNL358      0.1146
   1433 N           8.7989    2.0126   -0.0490 N.3   359  UNL359     -0.3437
   1434 H           9.0239    2.9891   -0.2338 H     359  UNL359      0.1146
   1435 H           7.8323    1.8861   -0.3458 H     359  UNL359      0.1146
   1436 H           9.3652    1.4665   -0.6967 H     359  UNL359      0.1146
   1437 N           8.2520    2.2382    2.2790 N.3   360  UNL360     -0.3437
   1438 H           8.2086    1.3041    1.8741 H     360  UNL360      0.1146
   1439 H           8.5188    2.1097    3.2540 H     360  UNL360      0.1146
   1440 H           9.0409    2.7022    1.8308 H     360  UNL360      0.1146
   1441 N           7.9372    2.7832    5.3113 N.3   361  UNL361     -0.3437
   1442 H           7.4955    1.9114    5.0228 H     361  UNL361      0.1146
   1443 H           8.6628    2.5232    5.9779 H     361  UNL361      0.1146
   1444 H           8.4247    3.1365    4.4892 H     361  UNL361      0.1146
   1445 N           8.1872    2.3463    8.1900 N.3   362  UNL362     -0.3437
   1446 H           7.7455    2.1339    7.2967 H     362  UNL362      0.1146
   1447 H           8.9128    1.6426    8.3190 H     362  UNL362      0.1146
   1448 H           8.6747    3.2315    8.0588 H     362  UNL362      0.1146
   1449 N           8.1872    2.5332   10.7180 N.3   363  UNL363     -0.3437
   1450 H           7.7455    1.6614   10.4295 H     363  UNL363      0.1146
   1451 H           8.9128    2.2732   11.3846 H     363  UNL363      0.1146
   1452 H           8.6747    2.8865    9.8959 H     363  UNL363      0.1146
   1453 N           8.1417    2.5342   13.5389 N.3   364  UNL364     -0.3437
   1454 H           7.9135    3.0053   12.6647 H     364  UNL364      0.1146
   1455 H           8.6426    1.6858   13.2785 H     364  UNL364      0.1146
   1456 H           8.8225    3.1290   14.0091 H     364  UNL364      0.1146
   1457 N           8.1872    2.2213   16.7375 N.3   365  UNL365     -0.3437
   1458 H           7.7455    2.0089   15.8441 H     365  UNL365      0.1146
   1459 H           8.9128    1.5176   16.8665 H     365  UNL365      0.1146
   1460 H           8.6747    3.1065   16.6063 H     365  UNL365      0.1146
   1461 N           7.4835    2.8745   19.5154 N.3   366  UNL366     -0.3437
   1462 H           7.6673    1.9147   19.2269 H     366  UNL366      0.1146
   1463 H           8.2165    3.1128   20.1820 H     366  UNL366      0.1146
   1464 H           7.6530    3.4523   18.6933 H     366  UNL366      0.1146
   1465 N           7.5256    2.3997   22.3479 N.3   367  UNL367     -0.3437
   1466 H           8.1309    1.9624   21.6546 H     367  UNL367      0.1146
   1467 H           6.7814    2.8566   21.8228 H     367  UNL367      0.1146
   1468 H           7.0825    1.6355   22.8558 H     367  UNL367      0.1146
   1469 N           8.1110    5.3629    1.5917 N.3   368  UNL368     -0.3437
   1470 H           8.1341    5.1356    2.5847 H     368  UNL368      0.1146
   1471 H           8.8072    6.0942    1.4546 H     368  UNL368      0.1146
   1472 H           8.4681    4.5408    1.1070 H     368  UNL368      0.1146
   1473 N           8.2334    5.3421    5.2881 N.3   369  UNL369     -0.3437
   1474 H           7.3908    5.7815    5.6558 H     369  UNL369      0.1146
   1475 H           8.9965    5.9874    5.4873 H     369  UNL369      0.1146
   1476 H           8.3996    4.5224    5.8701 H     369  UNL369      0.1146
   1477 N           8.3122    5.6029    8.0771 N.3   370  UNL370     -0.3437
   1478 H           7.8705    4.7311    7.7886 H     370  UNL370      0.1146
   1479 H           9.0378    5.3430    8.7437 H     370  UNL370      0.1146
   1480 H           8.7997    5.9563    7.2550 H     370  UNL370      0.1146
   1481 N           8.0622    5.1661   10.7059 N.3   371  UNL371     -0.3437
   1482 H           7.6205    4.9536    9.8125 H     371  UNL371      0.1146
   1483 H           8.7878    4.4624   10.8349 H     371  UNL371      0.1146
   1484 H           8.5497    6.0513   10.5747 H     371  UNL371      0.1146
   1485 N           8.5830    5.6029   13.2062 N.3   372  UNL372     -0.3437
   1486 H           8.2260    4.7311   13.5947 H     372  UNL372      0.1146
   1487 H           9.3595    5.3430   12.5996 H     372  UNL372      0.1146
   1488 H           7.8519    5.9563   12.5906 H     372  UNL372      0.1146
   1489 N           8.4062    5.0824   15.6904 N.3   373  UNL373     -0.3437
   1490 H           8.1989    6.0589   15.4860 H     373  UNL373      0.1146
   1491 H           8.2125    4.9559   16.6828 H     373  UNL373      0.1146
   1492 H           7.7027    4.5363   15.1952 H     373  UNL373      0.1146
   1493 N           8.1085    5.9443   18.7654 N.3   374  UNL374     -0.3437
   1494 H           8.2923    4.9845   18.4769 H     374  UNL374      0.1146
   1495 H           8.8415    6.1825   19.4320 H     374  UNL374      0.1146
   1496 H           8.2780    6.5221   17.9433 H     374  UNL374      0.1146
   1497 N           7.5514    5.0816   22.0984 N.3   375  UNL375     -0.3437
   1498 H           8.2621    4.7161   22.7307 H     375  UNL375      0.1146
   1499 H           7.1529    5.8956   22.5642 H     375  UNL375      0.1146
   1500 H           8.0541    5.4400   21.2878 H     375  UNL375      0.1146
   1501 N           8.0787    8.5295   -0.3068 N.3   376  UNL376     -0.3437
   1502 H           8.8892    8.1931    0.2112 H     376  UNL376      0.1146
   1503 H           7.5717    7.6978   -0.6062 H     376  UNL376      0.1146
   1504 H           7.4808    8.9921    0.3765 H     376  UNL376      0.1146
   1505 N           6.6924    8.0034    1.9718 N.3   377  UNL377     -0.3437
   1506 H           7.6546    7.7352    1.7704 H     377  UNL377      0.1146
   1507 H           6.1054    7.3028    1.5212 H     377  UNL377      0.1146
   1508 H           6.5680    7.8711    2.9745 H     377  UNL377      0.1146
   1509 N           8.1251    7.8982    4.3078 N.3   378  UNL378     -0.3437
   1510 H           7.9917    7.5169    5.2433 H     378  UNL378      0.1146
   1511 H           8.6661    8.7534    4.4275 H     378  UNL378      0.1146
   1512 H           8.7375    7.2441    3.8226 H     378  UNL378      0.1146
   1513 N           8.0622    8.1727    7.4521 N.3   379  UNL379     -0.3437
   1514 H           7.6205    7.3009    7.1636 H     379  UNL379      0.1146
   1515 H           8.7878    7.9128    8.1187 H     379  UNL379      0.1146
   1516 H           8.5497    8.5261    6.6300 H     379  UNL379      0.1146
   1517 N           8.1596    8.5477   10.2018 N.3   380  UNL380     -0.3437
   1518 H           7.9867    7.6759    9.7034 H     380  UNL380      0.1146
   1519 H           8.3259    8.2878   11.1730 H     380  UNL380      0.1146
   1520 H           9.0482    8.9011    9.8496 H     380  UNL380      0.1146
   1521 N           8.1872    7.9859   14.3467 N.3   381  UNL381     -0.3437
   1522 H           7.7455    7.7734   13.4533 H     381  UNL381      0.1146
   1523 H           8.9128    7.2821   14.4757 H     381  UNL381      0.1146
   1524 H           8.6747    8.8710   14.2155 H     381  UNL381      0.1146
   1525 N           8.3122    8.4227   16.9996 N.3   382  UNL382     -0.3437
   1526 H           7.8705    7.5509   16.7111 H     382  UNL382      0.1146
   1527 H           9.0378    8.1628   17.6662 H     382  UNL382      0.1146
   1528 H           8.7997    8.7761   16.1775 H     382  UNL382      0.1146
   1529 N           6.5207    7.8558   19.2852 N.3   383  UNL383     -0.3437
   1530 H           6.4266    7.8791   20.2995 H     383  UNL383      0.1146
   1531 H           6.0596    8.6967   18.9408 H     383  UNL383      0.1146
   1532 H           7.5134    7.9809   19.0922 H     383  UNL383      0.1146
   1533 N           8.6600    7.9170   20.8176 N.3   384  UNL384     -0.3437
   1534 H           9.5252    8.4056   21.0435 H     384  UNL384      0.1146
   1535 H           8.3703    7.4479   21.6745 H     384  UNL384      0.1146
   1536 H           7.9648    8.6420   20.6455 H     384  UNL384      0.1146
   1537 N           8.2544   11.0788    1.2945 N.3   385  UNL385     -0.3437
   1538 H           9.0858   11.6679    1.2857 H     385  UNL385      0.1146
   1539 H           8.3620   10.4295    0.5165 H     385  UNL385      0.1146
   1540 H           8.3182   10.5154    2.1412 H     385  UNL385      0.1146
   1541 N           8.1266   11.6311    4.6162 N.3   386  UNL386     -0.3437
   1542 H           8.4998   10.8612    5.1696 H     386  UNL386      0.1146
   1543 H           8.9087   11.9893    4.0698 H     386  UNL386      0.1146
   1544 H           7.4852   11.2100    3.9457 H     386  UNL386      0.1146
   1545 N           8.1872   11.2651    7.4321 N.3   387  UNL387     -0.3437
   1546 H           7.7455   12.0279    7.9435 H     387  UNL387      0.1146
   1547 H           8.9128   11.6940    6.8594 H     387  UNL387      0.1146
   1548 H           8.6747   10.7046    8.1296 H     387  UNL387      0.1146
   1549 N           7.1662   10.9577    9.8399 N.3   388  UNL388     -0.3437
   1550 H           6.8888   11.9166   10.0445 H     388  UNL388      0.1146
   1551 H           8.1790   10.9290    9.9488 H     388  UNL388      0.1146
   1552 H           6.7864   10.3882   10.5947 H     388  UNL388      0.1146
   1553 N           8.1432   10.7499   12.2026 N.3   389  UNL389     -0.3437
   1554 H           8.8758   11.2694   11.7210 H     389  UNL389      0.1146
   1555 H           8.5774    9.8867   12.5263 H     389  UNL389      0.1146
   1556 H           7.9239   11.2856   13.0412 H     389  UNL389      0.1146
   1557 N           8.2851   10.8394   15.5847 N.3   390  UNL390     -0.3437
   1558 H           8.5812   11.8009   15.4228 H     390  UNL390      0.1146
   1559 H           9.1206   10.2661   15.4763 H     390  UNL390      0.1146
   1560 H           8.0334   10.7852   16.5707 H     390  UNL390      0.1146
   1561 N           7.5210   10.8070   18.9178 N.3   391  UNL391     -0.3437
   1562 H           8.0647   11.4278   19.5156 H     391  UNL391      0.1146
   1563 H           7.2628   11.3588   18.1009 H     391  UNL391      0.1146
   1564 H           8.1719   10.0979   18.5834 H     391  UNL391      0.1146
   1565 N           8.1247   10.1759   22.3806 N.3   392  UNL392     -0.3437
   1566 H           8.1600   10.3554   21.3782 H     392  UNL392      0.1146
   1567 H           8.9313    9.5891   22.5894 H     392  UNL392      0.1146
   1568 H           8.3043   11.0712   22.8328 H     392  UNL392      0.1146
   1569 N           7.8933   13.5417    0.1547 N.3   393  UNL393     -0.3437
   1570 H           7.8543   14.5182   -0.1338 H     393  UNL393      0.1146
   1571 H           7.1330   13.4152    0.8213 H     393  UNL393      0.1146
   1572 H           7.6397   12.9956   -0.6674 H     393  UNL393      0.1146
   1573 N           8.3657   13.3802    2.3095 N.3   394  UNL394     -0.3437
   1574 H           9.0794   13.5409    3.0188 H     394  UNL394      0.1146
   1575 H           7.6716   12.7723    2.7420 H     394  UNL394      0.1146
   1576 H           7.9037   14.2773    2.1676 H     394  UNL394      0.1146
   1577 N           8.3871   13.9508    5.4885 N.3   395  UNL395     -0.3437
   1578 H           7.8384   13.3001    6.0487 H     395  UNL395      0.1146
   1579 H           9.0502   13.3810    4.9650 H     395  UNL395      0.1146
   1580 H           7.7447   14.3388    4.7991 H     395  UNL395      0.1146
   1581 N           8.8287   14.1038    8.0771 N.3   396  UNL396     -0.3437
   1582 H           9.6392   14.6499    7.7886 H     396  UNL396      0.1146
   1583 H           8.3217   14.6843    8.7437 H     396  UNL396      0.1146
   1584 H           8.2308   14.0327    7.2550 H     396  UNL396      0.1146
   1585 N           8.2785   13.5080   10.3542 N.3   397  UNL397     -0.3437
   1586 H           8.9830   14.1476   10.7186 H     397  UNL397      0.1146
   1587 H           8.7687   12.8857    9.7132 H     397  UNL397      0.1146
   1588 H           7.9902   12.9293   11.1419 H     397  UNL397      0.1146
   1589 N           8.5622   13.6232   13.4373 N.3   398  UNL398     -0.3437
   1590 H           8.1205   13.9499   12.5791 H     398  UNL398      0.1146
   1591 H           9.2878   12.9687   13.1481 H     398  UNL398      0.1146
   1592 H           9.0497   14.4288   13.8267 H     398  UNL398      0.1146
   1593 N           8.2277   13.6893   16.0483 N.3   399  UNL399     -0.3437
   1594 H           8.6878   12.9859   16.6243 H     399  UNL399      0.1146
   1595 H           8.9633   14.1200   15.4898 H     399  UNL399      0.1146
   1596 H           7.6415   13.1754   15.3921 H     399  UNL399      0.1146
   1597 N           8.2682   13.6050   18.8904 N.3   400  UNL400     -0.3437
   1598 H           9.0008   12.9581   18.6019 H     400  UNL400      0.1146
   1599 H           8.7024   14.2418   19.5570 H     400  UNL400      0.1146
   1600 H           8.0489   14.1657   18.0683 H     400  UNL400      0.1146
   1601 N           8.0237   13.3939   22.0667 N.3   401  UNL401     -0.3437
   1602 H           7.4189   13.3192   22.8834 H     401  UNL401      0.1146
   1603 H           8.9272   13.0179   22.3508 H     401  UNL401      0.1146
   1604 H           7.6506   12.7397   21.3802 H     401  UNL401      0.1146
   1605 N           8.1561   16.5262    0.9537 N.3   402  UNL402     -0.3437
   1606 H           9.0183   16.3967    0.4263 H     402  UNL402      0.1146
   1607 H           8.3820   16.3001    1.9213 H     402  UNL402      0.1146
   1608 H           7.9640   17.5268    0.9367 H     402  UNL402      0.1146
   1609 N           7.6872   16.7205    4.2693 N.3   403  UNL403     -0.3437
   1610 H           7.2455   17.6375    4.3189 H     403  UNL403      0.1146
   1611 H           8.4128   16.7965    3.5578 H     403  UNL403      0.1146
   1612 H           8.1747   16.5952    5.1553 H     403  UNL403      0.1146
   1613 N           8.5351   16.6804    7.1188 N.3   404  UNL404     -0.3437
   1614 H           9.0624   16.6418    7.9899 H     404  UNL404      0.1146
   1615 H           8.2374   15.7247    6.9281 H     404  UNL404      0.1146
   1616 H           7.6855   17.2028    7.3277 H     404  UNL404      0.1146
   1617 N           8.1872   16.1320   10.7180 N.3   405  UNL405     -0.3437
   1618 H           7.7455   15.2602   10.4295 H     405  UNL405      0.1146
   1619 H           8.9128   15.8721   11.3846 H     405  UNL405      0.1146
   1620 H           8.6747   16.4854    9.8959 H     405  UNL405      0.1146
   1621 N           8.1872   16.7570   13.3588 N.3   406  UNL406     -0.3437
   1622 H           7.7455   15.8852   13.0703 H     406  UNL406      0.1146
   1623 H           8.9128   16.4971   14.0254 H     406  UNL406      0.1146
   1624 H           8.6747   17.1104   12.5367 H     406  UNL406      0.1146
   1625 N           7.6596   16.6320   15.8585 N.3   407  UNL407     -0.3437
   1626 H           7.4867   15.7602   15.3601 H     407  UNL407      0.1146
   1627 H           7.8259   16.3721   16.8297 H     407  UNL407      0.1146
   1628 H           8.5482   16.9854   15.5063 H     407  UNL407      0.1146
   1629 N           7.5939   17.0097   19.1382 N.3   408  UNL408     -0.3437
   1630 H           7.7963   16.1045   18.7162 H     408  UNL408      0.1146
   1631 H           7.9326   16.9544   20.0977 H     408  UNL408      0.1146
   1632 H           8.1975   17.6811   18.6657 H     408  UNL408      0.1146
   1633 N           8.2220   15.8447   22.0890 N.3   409  UNL409     -0.3437
   1634 H           8.9973   15.7092   22.7362 H     409  UNL409      0.1146
   1635 H           8.4035   15.2260   21.2999 H     409  UNL409      0.1146
   1636 H           7.3975   15.4698   22.5559 H     409  UNL409      0.1146
   1637 N           8.3122   19.8547   -0.1787 N.3   410  UNL410     -0.3437
   1638 H           7.8705   20.1453    0.6924 H     410  UNL410      0.1146
   1639 H           9.0378   20.5443   -0.3694 H     410  UNL410      0.1146
   1640 H           8.7997   18.9846    0.0302 H     410  UNL410      0.1146
   1641 N           6.4372   19.4655    2.4769 N.3   411  UNL411     -0.3437
   1642 H           5.9955   18.6955    2.9774 H     411  UNL411      0.1146
   1643 H           7.1628   19.8236    3.0963 H     411  UNL411      0.1146
   1644 H           6.9247   19.0443    1.6874 H     411  UNL411      0.1146
   1645 N           8.1872   19.2244    5.2913 N.3   412  UNL412     -0.3437
   1646 H           7.7455   19.9872    5.8026 H     412  UNL412      0.1146
   1647 H           8.9128   19.6533    4.7186 H     412  UNL412      0.1146
   1648 H           8.6747   18.6639    5.9888 H     412  UNL412      0.1146
   1649 N           8.0622   19.4410    7.8771 N.3   413  UNL413     -0.3437
   1650 H           7.6205   19.8804    8.6835 H     413  UNL413      0.1146
   1651 H           8.7878   20.0862    7.5680 H     413  UNL413      0.1146
   1652 H           8.5497   18.6212    8.2360 H     413  UNL413      0.1146
   1653 N           8.3817   18.3894   10.7756 N.3   414  UNL414     -0.3437
   1654 H           9.3192   18.7227   10.5554 H     414  UNL414      0.1146
   1655 H           7.9017   19.1726   11.2168 H     414  UNL414      0.1146
   1656 H           7.9177   18.2442    9.8801 H     414  UNL414      0.1146
   1657 N           8.1872   19.2244   13.0888 N.3   415  UNL415     -0.3437
   1658 H           7.7455   19.9872   13.6001 H     415  UNL415      0.1146
   1659 H           8.9128   19.6533   12.5161 H     415  UNL415      0.1146
   1660 H           8.6747   18.6639   13.7862 H     415  UNL415      0.1146
   1661 N           8.1872   19.2244   15.8546 N.3   416  UNL416     -0.3437
   1662 H           7.7455   19.9872   16.3659 H     416  UNL416      0.1146
   1663 H           8.9128   19.6533   15.2819 H     416  UNL416      0.1146
   1664 H           8.6747   18.6639   16.5521 H     416  UNL416      0.1146
   1665 N           8.3164   19.7815   20.2101 N.3   417  UNL417     -0.3437
   1666 H           9.0140   20.5229   20.2550 H     417  UNL417      0.1146
   1667 H           7.4228   20.2235   20.4209 H     417  UNL417      0.1146
   1668 H           8.2671   19.5010   19.2317 H     417  UNL417      0.1146
   1669 N           7.7161   18.4221   22.5260 N.3   418  UNL418     -0.3437
   1670 H           8.7048   18.2058   22.6442 H     418  UNL418      0.1146
   1671 H           7.6664   19.4256   22.3560 H     418  UNL418      0.1146
   1672 H           7.4330   17.9754   21.6549 H     418  UNL418      0.1146
   1673 N           8.5094   21.8801    2.2005 N.3   419  UNL419     -0.3437
   1674 H           8.6313   21.7759    1.1942 H     419  UNL419      0.1146
   1675 H           7.8263   22.6260    2.3250 H     419  UNL419      0.1146
   1676 H           8.0535   21.0260    2.5182 H     419  UNL419      0.1146
   1677 N           8.0859   22.4800    5.1925 N.3   420  UNL420     -0.3437
   1678 H           8.5235   23.1058    5.8672 H     420  UNL420      0.1146
   1679 H           8.5253   22.6825    4.2956 H     420  UNL420      0.1146
   1680 H           8.3857   21.5397    5.4461 H     420  UNL420      0.1146
   1681 N           8.3122   22.1334    7.9538 N.3   421  UNL421     -0.3437
   1682 H           7.8705   22.8202    7.3443 H     421  UNL421      0.1146
   1683 H           9.0378   21.6871    7.3946 H     421  UNL421      0.1146
   1684 H           8.7997   22.6673    8.6719 H     421  UNL421      0.1146
   1685 N           8.1872   21.1049   10.5777 N.3   422  UNL422     -0.3437
   1686 H           7.7455   22.0211   10.5157 H     422  UNL422      0.1146
   1687 H           8.9128   21.0939    9.8623 H     422  UNL422      0.1146
   1688 H           8.6747   21.0881   11.4723 H     422  UNL422      0.1146
   1689 N           8.0915   22.4245   13.1899 N.3   423  UNL423     -0.3437
   1690 H           8.2749   22.7151   14.1492 H     423  UNL423      0.1146
   1691 H           8.5489   23.1141   12.5952 H     423  UNL423      0.1146
   1692 H           8.6050   21.5544   13.0569 H     423  UNL423      0.1146
   1693 N           8.1497   22.5499   16.2314 N.3   424  UNL424     -0.3437
   1694 H           8.7979   21.9934   15.6760 H     424  UNL424      0.1146
   1695 H           7.8707   21.9589   17.0132 H     424  UNL424      0.1146
   1696 H           8.7020   23.3058   16.6339 H     424  UNL424      0.1146
   1697 N           8.0915   22.7995   19.0965 N.3   425  UNL425     -0.3437
   1698 H           8.2749   23.0901   20.0558 H     425  UNL425      0.1146
   1699 H           8.5489   23.4891   18.5018 H     425  UNL425      0.1146
   1700 H           8.6050   21.9294   18.9636 H     425  UNL425      0.1146
   1701 N           8.1208   22.1241   22.6809 N.3   426  UNL426     -0.3437
   1702 H           7.2988   22.7186   22.7767 H     426  UNL426      0.1146
   1703 H           7.8246   21.3225   22.1258 H     426  UNL426      0.1146
   1704 H           8.7761   22.6427   22.0978 H     426  UNL426      0.1146
   1705 N           6.0042   24.8692   -0.1775 N.3   427  UNL427     -0.3437
   1706 H           6.7912   25.1598    0.4009 H     427  UNL427      0.1146
   1707 H           5.9349   25.5588   -0.9245 H     427  UNL427      0.1146
   1708 H           6.2901   23.9991   -0.6242 H     427  UNL427      0.1146
   1709 N           8.5905   24.2125    2.1824 N.3   428  UNL428     -0.3437
   1710 H           8.7927   25.1962    2.0096 H     428  UNL428      0.1146
   1711 H           9.1047   23.6913    1.4736 H     428  UNL428      0.1146
   1712 H           9.0324   23.9870    3.0724 H     428  UNL428      0.1146
   1713 N           7.7846   25.4664    5.1702 N.3   429  UNL429     -0.3437
   1714 H           7.6117   24.5946    4.6718 H     429  UNL429      0.1146
   1715 H           7.9509   25.2064    6.1414 H     429  UNL429      0.1146
   1716 H           8.6732   25.8197    4.8180 H     429  UNL429      0.1146
   1717 N           9.2496   25.0309    8.0853 N.3   430  UNL430     -0.3437
   1718 H           9.4489   25.6517    7.3022 H     430  UNL430      0.1146
   1719 H           8.7101   25.5827    8.7508 H     430  UNL430      0.1146
   1720 H           8.6118   24.3218    7.7263 H     430  UNL430      0.1146
   1721 N           8.3036   24.2783   10.7879 N.3   431  UNL431     -0.3437
   1722 H           8.7213   25.1276   11.1655 H     431  UNL431      0.1146
   1723 H           7.9165   24.5349    9.8808 H     431  UNL431      0.1146
   1724 H           9.0790   23.6463   10.5936 H     431  UNL431      0.1146
   1725 N           7.8122   24.9828   13.4546 N.3   432  UNL432     -0.3437
   1726 H           7.3705   24.4696   12.6931 H     432  UNL432      0.1146
   1727 H           8.5378   24.3694   13.8230 H     432  UNL432      0.1146
   1728 H           8.2997   25.7652   13.0204 H     432  UNL432      0.1146
   1729 N           7.8122   25.2164   16.1246 N.3   433  UNL433     -0.3437
   1730 H           7.3705   24.3446   15.8361 H     433  UNL433      0.1146
   1731 H           8.5378   24.9564   16.7912 H     433  UNL433      0.1146
   1732 H           8.2997   25.5697   15.3025 H     433  UNL433      0.1146
   1733 N           8.1872   25.8414   19.1404 N.3   434  UNL434     -0.3437
   1734 H           7.7455   24.9696   18.8519 H     434  UNL434      0.1146
   1735 H           8.9128   25.5814   19.8070 H     434  UNL434      0.1146
   1736 H           8.6747   26.1947   18.3183 H     434  UNL434      0.1146
   1737 N           8.1035   25.1363   22.0667 N.3   435  UNL435     -0.3437
   1738 H           8.2412   24.5427   22.8834 H     435  UNL435      0.1146
   1739 H           8.3826   26.0742   22.3508 H     435  UNL435      0.1146
   1740 H           8.7932   24.8339   21.3802 H     435  UNL435      0.1146
   1741 N           8.5003   29.2067   -0.7006 N.3   436  UNL436     -0.3437
   1742 H           8.4924   28.1878   -0.7081 H     436  UNL436      0.1146
   1743 H           7.5322   29.4942   -0.5645 H     436  UNL436      0.1146
   1744 H           8.9955   29.4775    0.1478 H     436  UNL436      0.1146
   1745 N           8.6135   28.1890    2.2657 N.3   437  UNL437     -0.3437
   1746 H           7.7313   28.4796    2.6846 H     437  UNL437      0.1146
   1747 H           9.3042   28.8786    2.5586 H     437  UNL437      0.1146
   1748 H           8.8714   27.3189    2.7291 H     437  UNL437      0.1146
   1749 N           8.0622   28.0989    5.0061 N.3   438  UNL438     -0.3437
   1750 H           7.6205   27.4207    4.3869 H     438  UNL438      0.1146
   1751 H           8.7878   27.5896    5.5086 H     438  UNL438      0.1146
   1752 H           8.5497   28.7570    4.3997 H     438  UNL438      0.1146
   1753 N           8.1302   27.8088    7.9583 N.3   439  UNL439     -0.3437
   1754 H           8.0936   28.5715    8.6330 H     439  UNL439      0.1146
   1755 H           8.3540   28.2377    7.0614 H     439  UNL439      0.1146
   1756 H           8.9425   27.2482    8.2119 H     439  UNL439      0.1146
   1757 N           8.3509   27.2306   10.7458 N.3   440  UNL440     -0.3437
   1758 H           8.6463   26.7956    9.8730 H     440  UNL440      0.1146
   1759 H           7.5829   27.8547   10.5027 H     440  UNL440      0.1146
   1760 H           7.9403   26.4852   11.3063 H     440  UNL440      0.1146
   1761 N           8.5474   27.6231   13.1397 N.3   441  UNL441     -0.3437
   1762 H           7.6636   27.2901   13.5223 H     441  UNL441      0.1146
   1763 H           8.3044   28.3188   12.4358 H     441  UNL441      0.1146
   1764 H           9.0049   28.1342   13.8933 H     441  UNL441      0.1146
   1765 N           8.2642   28.1081   15.9852 N.3   442  UNL442     -0.3437
   1766 H           8.0480   27.3821   15.3036 H     442  UNL442      0.1146
   1767 H           8.7769   27.6458   16.7348 H     442  UNL442      0.1146
   1768 H           8.9313   28.7302   15.5309 H     442  UNL442      0.1146
   1769 N           8.1872   29.1890   18.3071 N.3   443  UNL443     -0.3437
   1770 H           7.7455   29.4796   19.1782 H     443  UNL443      0.1146
   1771 H           8.9128   29.8786   18.1164 H     443  UNL443      0.1146
   1772 H           8.6747   28.3189   18.5160 H     443  UNL443      0.1146
   1773 N           8.3311   28.0294   21.0623 N.3   444  UNL444     -0.3437
   1774 H           7.3748   28.3523   20.9224 H     444  UNL444      0.1146
   1775 H           8.4323   27.8771   22.0648 H     444  UNL444      0.1146
   1776 H           8.3822   27.1074   20.6316 H     444  UNL444      0.1146
   1777 N           8.2352   32.1705    0.0100 N.3   445  UNL445     -0.3437
   1778 H           8.2997   32.7913    0.8154 H     445  UNL445      0.1146
   1779 H           8.5306   32.7222   -0.7943 H     445  UNL445      0.1146
   1780 H           8.9548   31.4614    0.1435 H     445  UNL445      0.1146
   1781 N           8.0622   30.9187    2.8652 N.3   446  UNL446     -0.3437
   1782 H           7.6205   30.2405    2.2461 H     446  UNL446      0.1146
   1783 H           8.7878   30.4093    3.3677 H     446  UNL446      0.1146
   1784 H           8.5497   31.5768    2.2589 H     446  UNL446      0.1146
   1785 N           8.0188   31.7571    5.2960 N.3   447  UNL447     -0.3437
   1786 H           7.3974   32.3197    5.8753 H     447  UNL447      0.1146
   1787 H           8.9250   31.7695    5.7620 H     447  UNL447      0.1146
   1788 H           7.6792   30.7991    5.3680 H     447  UNL447      0.1146
   1789 N           7.6405   30.5814    7.6974 N.3   448  UNL448     -0.3437
   1790 H           6.9628   30.2001    8.3560 H     448  UNL448      0.1146
   1791 H           7.9953   31.4366    8.1231 H     448  UNL448      0.1146
   1792 H           8.4218   29.9273    7.6882 H     448  UNL448      0.1146
   1793 N           8.1942   29.9967   10.4466 N.3   449  UNL449     -0.3437
   1794 H           8.6138   29.4793   11.2177 H     449  UNL449      0.1146
   1795 H           7.7412   30.8075   10.8659 H     449  UNL449      0.1146
   1796 H           8.9712   30.3618    9.8977 H     449  UNL449      0.1146
   1797 N           8.1872   30.6794   13.4202 N.3   450  UNL450     -0.3437
   1798 H           7.7455   29.9649   12.8434 H     450  UNL450      0.1146
   1799 H           8.9128   30.2016   13.9527 H     450  UNL450      0.1146
   1800 H           8.6747   31.2994   12.7749 H     450  UNL450      0.1146
   1801 N           8.0622   31.3559   15.9996 N.3   451  UNL451     -0.3437
   1802 H           7.6205   30.4841   15.7111 H     451  UNL451      0.1146
   1803 H           8.7878   31.0960   16.6662 H     451  UNL451      0.1146
   1804 H           8.5497   31.7093   15.1775 H     451  UNL451      0.1146
   1805 N           7.9651   32.1132   19.1688 N.3   452  UNL452     -0.3437
   1806 H           8.7722   32.5204   18.6986 H     452  UNL452      0.1146
   1807 H           7.4473   31.6080   18.4511 H     452  UNL452      0.1146
   1808 H           8.3358   31.4038   19.7994 H     452  UNL452      0.1146
   1809 N           7.9785   30.5960   22.3806 N.3   453  UNL453     -0.3437
   1810 H           8.1162   30.7164   21.3782 H     453  UNL453      0.1146
   1811 H           8.2576   29.6384   22.5894 H     453  UNL453      0.1146
   1812 H           8.6682   31.1944   22.8328 H     453  UNL453      0.1146
   1813 N           6.5257   34.1347   -0.3120 N.3   454  UNL454     -0.3437
   1814 H           7.1167   34.6858    0.3088 H     454  UNL454      0.1146
   1815 H           7.1390   33.7861   -1.0474 H     454  UNL454      0.1146
   1816 H           6.2390   33.3177    0.2252 H     454  UNL454      0.1146
   1817 N           8.6717   34.0786    2.3169 N.3   455  UNL455     -0.3437
   1818 H           7.7175   34.3692    2.1087 H     455  UNL455      0.1146
   1819 H           9.0389   34.7682    2.9711 H     455  UNL455      0.1146
   1820 H           8.5922   33.2085    2.8413 H     455  UNL455      0.1146
   1821 N           8.1438   34.7018    4.9210 N.3   456  UNL456     -0.3437
   1822 H           7.5224   35.2645    5.5003 H     456  UNL456      0.1146
   1823 H           9.0500   34.7142    5.3870 H     456  UNL456      0.1146
   1824 H           7.8042   33.7438    4.9930 H     456  UNL456      0.1146
   1825 N           8.2716   33.9678    8.0219 N.3   457  UNL457     -0.3437
   1826 H           8.3370   33.1612    7.4027 H     457  UNL457      0.1146
   1827 H           9.1571   34.0087    8.5244 H     457  UNL457      0.1146
   1828 H           8.2547   34.7866    7.4156 H     457  UNL457      0.1146
   1829 N           8.1872   33.1139   10.7059 N.3   458  UNL458     -0.3437
   1830 H           7.7455   32.9014    9.8125 H     458  UNL458      0.1146
   1831 H           8.9128   32.4101   10.8349 H     458  UNL458      0.1146
   1832 H           8.6747   33.9990   10.5747 H     458  UNL458      0.1146
   1833 N           8.1432   34.0581   12.8276 N.3   459  UNL459     -0.3437
   1834 H           8.8758   34.5776   12.3460 H     459  UNL459      0.1146
   1835 H           8.5774   33.1949   13.1513 H     459  UNL459      0.1146
   1836 H           7.9239   34.5938   13.6662 H     459  UNL459      0.1146
   1837 N           7.6872   34.0496   15.6507 N.3   460  UNL460     -0.3437
   1838 H           7.2455   33.3635   16.2611 H     460  UNL460      0.1146
   1839 H           8.4128   34.4966   16.2093 H     460  UNL460      0.1146
   1840 H           8.1747   33.5146   14.9334 H     460  UNL460      0.1146
   1841 N           7.6596   34.4257   18.4993 N.3   461  UNL461     -0.3437
   1842 H           7.4867   33.5539   18.0009 H     461  UNL461      0.1146
   1843 H           7.8259   34.1658   19.4705 H     461  UNL461      0.1146
   1844 H           8.5482   34.7790   18.1471 H     461  UNL461      0.1146
   1845 N           7.2284   33.3456   22.0667 N.3   462  UNL462     -0.3437
   1846 H           7.3662   32.7520   22.8834 H     462  UNL462      0.1146
   1847 H           7.5076   34.2835   22.3508 H     462  UNL462      0.1146
   1848 H           7.9182   33.0432   21.3802 H     462  UNL462      0.1146
   1849 N           8.0859   37.3289   -0.0892 N.3   463  UNL463     -0.3437
   1850 H           8.5235   37.9547    0.5855 H     463  UNL463      0.1146
   1851 H           8.5253   37.5313   -0.9861 H     463  UNL463      0.1146
   1852 H           8.3857   36.3886    0.1644 H     463  UNL463      0.1146
   1853 N           8.0622   37.2733    2.4622 N.3   464  UNL464     -0.3437
   1854 H           7.6205   37.5639    3.3333 H     464  UNL464      0.1146
   1855 H           8.7878   37.9629    2.2715 H     464  UNL464      0.1146
   1856 H           8.5497   36.4032    2.6711 H     464  UNL464      0.1146
   1857 N           8.0622   37.2733    5.4780 N.3   465  UNL465     -0.3437
   1858 H           7.6205   37.5639    6.3491 H     465  UNL465      0.1146
   1859 H           8.7878   37.9629    5.2873 H     465  UNL465      0.1146
   1860 H           8.5497   36.4032    5.6869 H     465  UNL465      0.1146
   1861 N           8.5525   37.2733    8.3296 N.3   466  UNL466     -0.3437
   1862 H           9.0695   37.5639    7.5010 H     466  UNL466      0.1146
   1863 H           7.8129   37.9629    8.4555 H     466  UNL466      0.1146
   1864 H           8.0854   36.4032    8.0785 H     466  UNL466      0.1146
   1865 N           8.4099   35.9810   10.4173 N.3   467  UNL467     -0.3437
   1866 H           8.0703   35.5120   11.2558 H     467  UNL467      0.1146
   1867 H           7.7595   35.7322    9.6733 H     467  UNL467      0.1146
   1868 H           8.2807   36.9783   10.5814 H     467  UNL467      0.1146
   1869 N           8.1872   37.2733   12.6505 N.3   468  UNL468     -0.3437
   1870 H           7.7455   37.5639   13.5216 H     468  UNL468      0.1146
   1871 H           8.9128   37.9629   12.4598 H     468  UNL468      0.1146
   1872 H           8.6747   36.4032   12.8594 H     468  UNL468      0.1146
   1873 N           8.6344   37.2733   15.9117 N.3   469  UNL469     -0.3437
   1874 H           8.7709   37.5639   14.9446 H     469  UNL469      0.1146
   1875 H           8.0094   37.9629   16.3267 H     469  UNL469      0.1146
   1876 H           8.1056   36.4032   15.8716 H     469  UNL469      0.1146
   1877 N           8.1868   37.0885   18.3236 N.3   470  UNL470     -0.3437
   1878 H           7.7339   37.4761   19.1500 H     470  UNL470      0.1146
   1879 H           8.8220   37.8106   17.9867 H     470  UNL470      0.1146
   1880 H           8.7776   36.3284   18.6576 H     470  UNL470      0.1146
   1881 N           8.3685   36.0742   21.2024 N.3   471  UNL471     -0.3437
   1882 H           8.5258   35.9085   22.1955 H     471  UNL471      0.1146
   1883 H           8.4720   37.0786   21.0654 H     471  UNL471      0.1146
   1884 H           9.1540   35.6423   20.7177 H     471  UNL471      0.1146
   1885 N          11.1746   -0.2205   -0.1799 N.3   472  UNL472     -0.3437
   1886 H          10.5307    0.3935    0.3168 H     472  UNL472      0.1146
   1887 H          11.8204   -0.5778    0.5228 H     472  UNL472      0.1146
   1888 H          10.6214   -1.0200   -0.4851 H     472  UNL472      0.1146
   1889 N          11.0202   -0.3837    2.6407 N.3   473  UNL473     -0.3437
   1890 H          10.1380   -0.0931    3.0596 H     473  UNL473      0.1146
   1891 H          11.7109    0.3059    2.9336 H     473  UNL473      0.1146
   1892 H          11.2781   -1.2538    3.1041 H     473  UNL473      0.1146
   1893 N          11.2323   -1.2956    5.2370 N.3   474  UNL474     -0.3437
   1894 H          10.4253   -1.8158    4.8957 H     474  UNL474      0.1146
   1895 H          10.8592   -0.4570    5.6796 H     474  UNL474      0.1146
   1896 H          11.6305   -1.8564    5.9889 H     474  UNL474      0.1146
   1897 N          10.6684   -0.8291    8.0937 N.3   475  UNL475     -0.3437
   1898 H          11.6390   -1.1163    7.9761 H     475  UNL475      0.1146
   1899 H          10.6660    0.1876    8.0254 H     475  UNL475      0.1146
   1900 H          10.1737   -1.1670    7.2694 H     475  UNL475      0.1146
   1901 N          10.6546   -0.4076   10.6077 N.3   476  UNL476     -0.3437
   1902 H          10.6485   -1.3501   10.2203 H     476  UNL476      0.1146
   1903 H          11.4357   -0.3777   11.2614 H     476  UNL476      0.1146
   1904 H          10.9084    0.2106    9.8385 H     476  UNL476      0.1146
   1905 N          10.7958   -0.4950   13.0140 N.3   477  UNL477     -0.3437
   1906 H          10.0936   -0.0171   13.5769 H     477  UNL477      0.1146
   1907 H          11.4774    0.2158   12.7522 H     477  UNL477      0.1146
   1908 H          11.2804   -1.1286   13.6481 H     477  UNL477      0.1146
   1909 N          10.6402   -0.4452   16.1246 N.3   478  UNL478     -0.3437
   1910 H          10.8240   -1.4051   15.8361 H     478  UNL478      0.1146
   1911 H          11.3732   -0.2070   16.7912 H     478  UNL478      0.1146
   1912 H          10.8097    0.1325   15.3025 H     478  UNL478      0.1146
   1913 N          10.7716   -0.3484   20.9150 N.3   479  UNL479     -0.3437
   1914 H          11.5250   -0.5609   20.2626 H     479  UNL479      0.1146
   1915 H          10.8293   -1.0522   21.6497 H     479  UNL479      0.1146
   1916 H          11.0212    0.5367   21.3538 H     479  UNL479      0.1146
   1917 N          10.9689    2.4082    2.0455 N.3   480  UNL480     -0.3437
   1918 H          10.5272    1.5364    1.7570 H     480  UNL480      0.1146
   1919 H          11.6945    2.1482    2.7121 H     480  UNL480      0.1146
   1920 H          11.4564    2.7615    1.2234 H     480  UNL480      0.1146
   1921 N          10.5663    2.1360    5.0455 N.3   481  UNL481     -0.3437
   1922 H          10.3934    1.7511    4.1179 H     481  UNL481      0.1146
   1923 H          10.7326    1.3363    5.6548 H     481  UNL481      0.1146
   1924 H          11.4549    2.6309    4.9830 H     481  UNL481      0.1146
   1925 N          10.9689    2.3477    7.7744 N.3   482  UNL482     -0.3437
   1926 H          10.5272    2.9685    8.4511 H     482  UNL482      0.1146
   1927 H          11.6945    2.8994    7.3189 H     482  UNL482      0.1146
   1928 H          11.4564    1.6386    8.3202 H     482  UNL482      0.1146
   1929 N          10.8439    2.3567   10.6543 N.3   483  UNL483     -0.3437
   1930 H          10.4022    1.6421   10.0776 H     483  UNL483      0.1146
   1931 H          11.5695    1.8788   11.1869 H     483  UNL483      0.1146
   1932 H          11.3314    2.9767   10.0091 H     483  UNL483      0.1146
   1933 N          10.8622    2.1723   13.2381 N.3   484  UNL484     -0.3437
   1934 H          11.7046    2.4455   12.7341 H     484  UNL484      0.1146
   1935 H          10.9780    2.5211   14.1886 H     484  UNL484      0.1146
   1936 H          10.1024    2.7154   12.8304 H     484  UNL484      0.1146
   1937 N          10.7189    1.8690   15.9330 N.3   485  UNL485     -0.3437
   1938 H          10.2772    2.7155   15.5770 H     485  UNL485      0.1146
   1939 H          11.4445    1.6264   15.2598 H     485  UNL485      0.1146
   1940 H          11.2064    2.1434   16.7847 H     485  UNL485      0.1146
   1941 N          10.0019    2.0301   19.0826 N.3   486  UNL486     -0.3437
   1942 H          10.2130    2.0899   18.0875 H     486  UNL486      0.1146
   1943 H          10.6272    1.3196   19.4601 H     486  UNL486      0.1146
   1944 H          10.3050    2.9147   19.4876 H     486  UNL486      0.1146
   1945 N          10.3698    2.4479   22.2380 N.3   487  UNL487     -0.3437
   1946 H          11.3678    2.6410   22.3099 H     487  UNL487      0.1146
   1947 H          10.2158    2.1158   21.2870 H     487  UNL487      0.1146
   1948 H          10.1937    1.6495   22.8462 H     487  UNL487      0.1146
   1949 N          11.0386    5.4400    0.0089 N.3   488  UNL488     -0.3437
   1950 H          10.9941    4.5264   -0.4403 H     488  UNL488      0.1146
   1951 H          11.2580    5.2613    0.9878 H     488  UNL488      0.1146
   1952 H          11.8565    5.9056   -0.3817 H     488  UNL488      0.1146
   1953 N          10.2189    5.2726    2.6168 N.3   489  UNL489     -0.3437
   1954 H           9.7772    4.9696    3.4837 H     489  UNL489      0.1146
   1955 H          10.9445    5.9348    2.8877 H     489  UNL489      0.1146
   1956 H          10.7064    4.4564    2.2498 H     489  UNL489      0.1146
   1957 N          10.6163    4.7892    5.4554 N.3   490  UNL490     -0.3437
   1958 H          10.9876    4.3778    4.6003 H     490  UNL490      0.1146
   1959 H          11.0132    4.2484    6.2226 H     490  UNL490      0.1146
   1960 H          11.0300    5.7179    5.5230 H     490  UNL490      0.1146
   1961 N          10.9689    5.3499    8.3074 N.3   491  UNL491     -0.3437
   1962 H          10.5272    5.4097    7.3911 H     491  UNL491      0.1146
   1963 H          11.6945    4.6393    8.2236 H     491  UNL491      0.1146
   1964 H          11.4564    6.2345    8.4425 H     491  UNL491      0.1146
   1965 N          10.9266    5.1440   10.8430 N.3   492  UNL492     -0.3437
   1966 H           9.9717    5.3520   10.5545 H     492  UNL492      0.1146
   1967 H          10.8577    4.3763   11.5096 H     492  UNL492      0.1146
   1968 H          11.3913    4.7611   10.0209 H     492  UNL492      0.1146
   1969 N          11.3801    5.3686   13.4279 N.3   493  UNL493     -0.3437
   1970 H          11.3638    4.3608   13.2782 H     493  UNL493      0.1146
   1971 H          11.4460    5.7891   12.5020 H     493  UNL493      0.1146
   1972 H          10.4573    5.6148   13.7830 H     493  UNL493      0.1146
   1973 N          10.9624    5.5411   15.6510 N.3   494  UNL494     -0.3437
   1974 H          10.1416    6.1372   15.5542 H     494  UNL494      0.1146
   1975 H          11.4344    5.8488   16.5000 H     494  UNL494      0.1146
   1976 H          10.6088    4.6063   15.8493 H     494  UNL494      0.1146
   1977 N          10.8710    5.4432   18.4620 N.3   495  UNL495     -0.3437
   1978 H          10.0808    4.8580   18.1948 H     495  UNL495      0.1146
   1979 H          11.0091    5.2902   19.4600 H     495  UNL495      0.1146
   1980 H          11.6863    5.0419   18.0010 H     495  UNL495      0.1146
   1981 N          10.6406    5.1421   21.5098 N.3   496  UNL496     -0.3437
   1982 H          11.4062    5.7133   21.8647 H     496  UNL496      0.1146
   1983 H          10.0443    5.7724   20.9754 H     496  UNL496      0.1146
   1984 H          11.0561    4.5057   20.8311 H     496  UNL496      0.1146
   1985 N          10.3966    8.0800    1.8706 N.3   497  UNL497     -0.3437
   1986 H           9.5906    8.0301    2.4921 H     497  UNL497      0.1146
   1987 H          11.2154    8.1248    2.4756 H     497  UNL497      0.1146
   1988 H          10.4445    7.1776    1.3997 H     497  UNL497      0.1146
   1989 N          10.5881    7.9415    5.0527 N.3   498  UNL498     -0.3437
   1990 H          11.2068    8.4654    4.4354 H     498  UNL498      0.1146
   1991 H          11.1950    7.3760    5.6446 H     498  UNL498      0.1146
   1992 H          10.1572    8.6296    5.6685 H     498  UNL498      0.1146
   1993 N          10.8439    8.4227    7.9521 N.3   499  UNL499     -0.3437
   1994 H          10.4022    7.5509    7.6636 H     499  UNL499      0.1146
   1995 H          11.5695    8.1628    8.6187 H     499  UNL499      0.1146
   1996 H          11.3314    8.7761    7.1300 H     499  UNL499      0.1146
   1997 N          10.7189    7.7359   10.5809 N.3   500  UNL500     -0.3437
   1998 H          10.2772    7.5234    9.6875 H     500  UNL500      0.1146
   1999 H          11.4445    7.0321   10.7099 H     500  UNL500      0.1146
   2000 H          11.2064    8.6210   10.4497 H     500  UNL500      0.1146
   2001 N          10.9430    8.1271   13.0163 N.3   501  UNL501     -0.3437
   2002 H          11.4365    7.4296   12.4609 H     501  UNL501      0.1146
   2003 H           9.9704    7.8247   13.0472 H     501  UNL501      0.1146
   2004 H          11.2973    8.0311   13.9669 H     501  UNL501      0.1146
   2005 N          11.3342    8.1892   16.3627 N.3   502  UNL502     -0.3437
   2006 H          10.5107    7.6760   16.6737 H     502  UNL502      0.1146
   2007 H          11.8165    7.5758   15.7073 H     502  UNL502      0.1146
   2008 H          10.9857    8.9716   15.8107 H     502  UNL502      0.1146
   2009 N          10.4689    8.2977   19.0154 N.3   503  UNL503     -0.3437
   2010 H          10.0272    7.4259   18.7269 H     503  UNL503      0.1146
   2011 H          11.1945    8.0378   19.6820 H     503  UNL503      0.1146
   2012 H          10.9564    8.6511   18.1933 H     503  UNL503      0.1146
   2013 N          10.9779    7.8320   22.5920 N.3   504  UNL504     -0.3437
   2014 H          11.2556    7.8398   21.6116 H     504  UNL504      0.1146
   2015 H          10.8726    8.8090   22.8619 H     504  UNL504      0.1146
   2016 H          10.0411    7.4317   22.6155 H     504  UNL504      0.1146
   2017 N          10.4689   10.1807    0.2676 N.3   505  UNL505     -0.3437
   2018 H          10.0272    9.9682   -0.6258 H     505  UNL505      0.1146
   2019 H          11.1945    9.4769    0.3966 H     505  UNL505      0.1146
   2020 H          10.9564   11.0658    0.1364 H     505  UNL505      0.1146
   2021 N          10.8439   10.7746    2.3916 N.3   506  UNL506     -0.3437
   2022 H          10.4022   11.5064    2.9463 H     506  UNL506      0.1146
   2023 H          11.5695   11.2360    1.8447 H     506  UNL506      0.1146
   2024 H          11.3314   10.1745    3.0553 H     506  UNL506      0.1146
   2025 N          10.3439   10.8057    4.9242 N.3   507  UNL507     -0.3437
   2026 H           9.9022   10.5932    4.0308 H     507  UNL507      0.1146
   2027 H          11.0695   10.1019    5.0532 H     507  UNL507      0.1146
   2028 H          10.8314   11.6908    4.7930 H     507  UNL507      0.1146
   2029 N          10.9445   11.0235    7.7645 N.3   508  UNL508     -0.3437
   2030 H          10.5974   10.5156    6.9521 H     508  UNL508      0.1146
   2031 H          11.5711   10.3829    8.2497 H     508  UNL508      0.1146
   2032 H          11.5341   11.7696    7.3983 H     508  UNL508      0.1146
   2033 N          10.6445   11.0988   10.4437 N.3   509  UNL509     -0.3437
   2034 H          11.3721   10.7140    9.8430 H     509  UNL509      0.1146
   2035 H           9.9944   11.5804    9.8243 H     509  UNL509      0.1146
   2036 H          10.1361   10.2984   10.8169 H     509  UNL509      0.1146
   2037 N          10.7189   10.8057   13.4717 N.3   510  UNL510     -0.3437
   2038 H          10.2772   10.5932   12.5783 H     510  UNL510      0.1146
   2039 H          11.4445   10.1019   13.6007 H     510  UNL510      0.1146
   2040 H          11.2064   11.6908   13.3405 H     510  UNL510      0.1146
   2041 N          11.2227   11.1186   16.3842 N.3   511  UNL511     -0.3437
   2042 H          10.3051   11.5159   16.1881 H     511  UNL511      0.1146
   2043 H          11.0570   10.3113   16.9835 H     511  UNL511      0.1146
   2044 H          11.5624   10.7458   15.4987 H     511  UNL511      0.1146
   2045 N          10.4689   11.2043   19.1191 N.3   512  UNL512     -0.3437
   2046 H          10.0272   10.7057   19.8902 H     512  UNL512      0.1146
   2047 H          11.1945   11.7840   19.5384 H     512  UNL512      0.1146
   2048 H          10.9564   10.4976   18.5702 H     512  UNL512      0.1146
   2049 N          10.5101   11.1455   21.8840 N.3   513  UNL513     -0.3437
   2050 H          10.6479   10.2057   21.5151 H     513  UNL513      0.1146
   2051 H          10.7893   11.1066   22.8633 H     513  UNL513      0.1146
   2052 H          11.1999   11.7338   21.4186 H     513  UNL513      0.1146
   2053 N          10.8783   13.7935    0.5743 N.3   514  UNL514     -0.3437
   2054 H           9.9956   13.4087    0.9077 H     514  UNL514      0.1146
   2055 H          11.2933   14.2752    1.3706 H     514  UNL514      0.1146
   2056 H          11.4801   12.9932    0.3854 H     514  UNL514      0.1146
   2057 N          11.3511   13.6254    3.5522 N.3   515  UNL515     -0.3437
   2058 H          10.3974   13.4130    3.8416 H     515  UNL515      0.1146
   2059 H          11.5972   12.9217    2.8576 H     515  UNL515      0.1146
   2060 H          11.3015   14.5106    3.0498 H     515  UNL515      0.1146
   2061 N          10.8301   13.4441    5.8112 N.3   516  UNL516     -0.3437
   2062 H          10.1009   13.2050    6.4817 H     516  UNL516      0.1146
   2063 H          11.0666   14.4192    5.9894 H     516  UNL516      0.1146
   2064 H          11.6495   12.9024    6.0823 H     516  UNL516      0.1146
   2065 N          10.9689   13.3768    8.5402 N.3   517  UNL517     -0.3437
   2066 H          10.5272   13.9976    9.2169 H     517  UNL517      0.1146
   2067 H          11.6945   13.9285    8.0847 H     517  UNL517      0.1146
   2068 H          11.4564   12.6677    9.0860 H     517  UNL517      0.1146
   2069 N          10.7189   13.5018   11.3061 N.3   518  UNL518     -0.3437
   2070 H          10.2772   14.1226   11.9827 H     518  UNL518      0.1146
   2071 H          11.4445   14.0535   10.8505 H     518  UNL518      0.1146
   2072 H          11.2064   12.7927   11.8519 H     518  UNL518      0.1146
   2073 N          11.0317   13.8754   14.1233 N.3   519  UNL519     -0.3437
   2074 H          12.0267   13.6630   14.0681 H     519  UNL519      0.1146
   2075 H          10.6280   13.1717   14.7399 H     519  UNL519      0.1146
   2076 H          10.9608   14.7606   14.6232 H     519  UNL519      0.1146
   2077 N          10.8485   14.0567   17.4067 N.3   520  UNL520     -0.3437
   2078 H          10.5356   13.7473   16.4875 H     520  UNL520      0.1146
   2079 H          10.9879   13.2096   17.9557 H     520  UNL520      0.1146
   2080 H          11.7752   14.4570   17.2679 H     520  UNL520      0.1146
   2081 N          10.6998   13.9393   20.5924 N.3   521  UNL521     -0.3437
   2082 H           9.9894   13.2359   20.7892 H     521  UNL521      0.1146
   2083 H          10.9244   14.3700   21.4883 H     521  UNL521      0.1146
   2084 H          11.5336   13.4254   20.3111 H     521  UNL521      0.1146
   2085 N          11.0939   16.3985    0.2505 N.3   522  UNL522     -0.3437
   2086 H          10.6522   15.8853   -0.5110 H     522  UNL522      0.1146
   2087 H          11.8195   15.7851    0.6189 H     522  UNL522      0.1146
   2088 H          11.5814   17.1809   -0.1837 H     522  UNL522      0.1146
   2089 N          10.7242   16.7670    2.4805 N.3   523  UNL523     -0.3437
   2090 H          10.9419   15.8585    2.0736 H     523  UNL523      0.1146
   2091 H           9.9538   16.6073    3.1282 H     523  UNL523      0.1146
   2092 H          11.5273   17.0169    3.0557 H     523  UNL523      0.1146
   2093 N          10.4707   16.5851    5.6141 N.3   524  UNL524     -0.3437
   2094 H          10.0803   15.6784    5.3616 H     524  UNL524      0.1146
   2095 H          11.2984   16.7064    5.0323 H     524  UNL524      0.1146
   2096 H           9.7977   17.2798    5.2933 H     524  UNL524      0.1146
   2097 N          11.0443   16.7179    8.0327 N.3   525  UNL525     -0.3437
   2098 H          10.8315   15.8305    7.5793 H     525  UNL525      0.1146
   2099 H          11.6022   16.4872    8.8536 H     525  UNL525      0.1146
   2100 H          11.6692   17.2143    7.3990 H     525  UNL525      0.1146
   2101 N          10.5152   16.8484   10.7180 N.3   526  UNL526     -0.3437
   2102 H          10.6990   15.8886   10.4295 H     526  UNL526      0.1146
   2103 H          11.2482   17.0866   11.3846 H     526  UNL526      0.1146
   2104 H          10.6847   17.4262    9.8959 H     526  UNL526      0.1146
   2105 N          10.8472   16.5820   13.0731 N.3   527  UNL527     -0.3437
   2106 H          10.8810   15.5828   12.8761 H     527  UNL527      0.1146
   2107 H          10.6146   16.6657   14.0617 H     527  UNL527      0.1146
   2108 H          11.8043   16.9192   12.9803 H     527  UNL527      0.1146
   2109 N          10.5939   16.6320   16.3746 N.3   528  UNL528     -0.3437
   2110 H          10.1522   15.7602   16.0861 H     528  UNL528      0.1146
   2111 H          11.3195   16.3721   17.0412 H     528  UNL528      0.1146
   2112 H          11.0814   16.9854   15.5525 H     528  UNL528      0.1146
   2113 N          10.2209   16.4947   18.8727 N.3   529  UNL529     -0.3437
   2114 H           9.9129   15.7335   18.2693 H     529  UNL529      0.1146
   2115 H          11.1423   16.2263   19.2152 H     529  UNL529      0.1146
   2116 H          10.3711   17.2953   18.2605 H     529  UNL529      0.1146
   2117 N          11.1257   16.8734   21.9612 N.3   530  UNL530     -0.3437
   2118 H          10.7403   16.3389   21.1840 H     530  UNL530      0.1146
   2119 H          10.3356   17.3507   22.3929 H     530  UNL530      0.1146
   2120 H          11.4455   16.1868   22.6430 H     530  UNL530      0.1146
   2121 N          10.6839   20.0352   -0.0175 N.3   531  UNL531     -0.3437
   2122 H          10.6173   20.6610    0.7840 H     531  UNL531      0.1146
   2123 H          11.5801   20.2377   -0.4583 H     531  UNL531      0.1146
   2124 H          10.7659   19.0949    0.3665 H     531  UNL531      0.1146
   2125 N           9.0305   18.7199    2.4164 N.3   532  UNL532     -0.3437
   2126 H           8.1872   18.1648    2.5549 H     532  UNL532      0.1146
   2127 H           8.7636   19.6864    2.5981 H     532  UNL532      0.1146
   2128 H           9.6659   18.4578    3.1686 H     532  UNL532      0.1146
   2129 N          10.7189   19.2244    5.1663 N.3   533  UNL533     -0.3437
   2130 H          10.2772   19.9872    5.6776 H     533  UNL533      0.1146
   2131 H          11.4445   19.6533    4.5936 H     533  UNL533      0.1146
   2132 H          11.2064   18.6639    5.8638 H     533  UNL533      0.1146
   2133 N          10.6755   19.4451    7.8634 N.3   534  UNL534     -0.3437
   2134 H          10.0541   19.7680    8.6036 H     534  UNL534      0.1146
   2135 H          11.5817   19.2928    8.3039 H     534  UNL534      0.1146
   2136 H          10.3359   18.5230    7.5937 H     534  UNL534      0.1146
   2137 N          11.4074   19.1875   10.3846 N.3   535  UNL535     -0.3437
   2138 H          11.0483   18.7993   11.2557 H     535  UNL535      0.1146
   2139 H          10.8459   20.0162   10.1939 H     535  UNL535      0.1146
   2140 H          12.3456   19.5259   10.5935 H     535  UNL535      0.1146
   2141 N          11.0939   19.2244   13.0888 N.3   536  UNL536     -0.3437
   2142 H          10.6522   19.9872   13.6001 H     536  UNL536      0.1146
   2143 H          11.8195   19.6533   12.5161 H     536  UNL536      0.1146
   2144 H          11.5814   18.6639   13.7862 H     536  UNL536      0.1146
   2145 N          11.3557   19.1394   15.7296 N.3   537  UNL537     -0.3437
   2146 H          10.5398   19.4727   16.2409 H     537  UNL537      0.1146
   2147 H          11.6674   19.9226   15.1569 H     537  UNL537      0.1146
   2148 H          12.0843   18.9942   16.4271 H     537  UNL537      0.1146
   2149 N          10.7441   19.3923   18.6632 N.3   538  UNL538     -0.3437
   2150 H           9.8868   19.0056   18.2710 H     538  UNL538      0.1146
   2151 H          11.1108   18.6804   19.2934 H     538  UNL538      0.1146
   2152 H          11.4054   19.4506   17.8901 H     538  UNL538      0.1146
   2153 N          10.7221   19.8612   21.8958 N.3   539  UNL539     -0.3437
   2154 H          10.8781   19.3167   22.7429 H     539  UNL539      0.1146
   2155 H          10.8027   19.2045   21.1209 H     539  UNL539      0.1146
   2156 H           9.7442   20.1465   21.9215 H     539  UNL539      0.1146
   2157 N          10.5367   22.0678    2.3519 N.3   540  UNL540     -0.3437
   2158 H          11.1707   21.4465    2.8524 H     540  UNL540      0.1146
   2159 H          10.3727   22.8601    2.9713 H     540  UNL540      0.1146
   2160 H          11.0670   22.4336    1.5624 H     540  UNL540      0.1146
   2161 N          10.7189   22.2995    4.9780 N.3   541  UNL541     -0.3437
   2162 H          10.2772   22.5901    5.8491 H     541  UNL541      0.1146
   2163 H          11.4445   22.9891    4.7873 H     541  UNL541      0.1146
   2164 H          11.2064   21.4294    5.1869 H     541  UNL541      0.1146
   2165 N          10.8439   22.1692    7.6821 N.3   542  UNL542     -0.3437
   2166 H          10.4022   22.9320    8.1935 H     542  UNL542      0.1146
   2167 H          11.5695   22.5981    7.1094 H     542  UNL542      0.1146
   2168 H          11.3314   21.6087    8.3796 H     542  UNL542      0.1146
   2169 N          10.8014   21.9884   10.4350 N.3   543  UNL543     -0.3437
   2170 H          10.0829   22.4751   10.9690 H     543  UNL543      0.1146
   2171 H          11.2926   22.7070    9.9050 H     543  UNL543      0.1146
   2172 H          11.4703   21.6374   11.1189 H     543  UNL543      0.1146
   2173 N          10.7189   22.4245   13.0255 N.3   544  UNL544     -0.3437
   2174 H          10.2772   22.7151   13.8966 H     544  UNL544      0.1146
   2175 H          11.4445   23.1141   12.8348 H     544  UNL544      0.1146
   2176 H          11.2064   21.5544   13.2344 H     544  UNL544      0.1146
   2177 N          11.0569   22.5029   16.1411 N.3   545  UNL545     -0.3437
   2178 H          10.2681   23.1337   16.0058 H     545  UNL545      0.1146
   2179 H          10.6744   21.5598   16.0894 H     545  UNL545      0.1146
   2180 H          11.6478   22.6117   15.3181 H     545  UNL545      0.1146
   2181 N          10.7189   22.0662   18.3367 N.3   546  UNL546     -0.3437
   2182 H          10.2772   21.7633   19.2036 H     546  UNL546      0.1146
   2183 H          11.4445   22.7284   18.6077 H     546  UNL546      0.1146
   2184 H          11.2064   21.2501   17.9698 H     546  UNL546      0.1146
   2185 N          11.2619   22.6399   21.2078 N.3   547  UNL547     -0.3437
   2186 H          10.5909   22.9627   20.5122 H     547  UNL547      0.1146
   2187 H          10.7287   22.4875   22.0628 H     547  UNL547      0.1146
   2188 H          11.5657   21.7178   20.8983 H     547  UNL547      0.1146
   2189 N           9.1474   25.2610   -0.5805 N.3   548  UNL548     -0.3437
   2190 H           9.8470   24.7657   -0.0294 H     548  UNL548      0.1146
   2191 H           8.3991   24.5909   -0.7523 H     548  UNL548      0.1146
   2192 H           8.7536   25.9696    0.0369 H     548  UNL548      0.1146
   2193 N          10.8846   24.8829    2.0565 N.3   549  UNL549     -0.3437
   2194 H          11.2779   23.9834    2.3296 H     549  UNL549      0.1146
   2195 H          10.3144   25.1906    2.8430 H     549  UNL549      0.1146
   2196 H          11.6702   25.5302    2.0089 H     549  UNL549      0.1146
   2197 N          10.7533   24.9187    5.3113 N.3   550  UNL550     -0.3437
   2198 H           9.8706   24.4992    5.0228 H     550  UNL550      0.1146
   2199 H          11.1683   24.2692    5.9779 H     550  UNL550      0.1146
   2200 H          11.3551   24.9000    4.4892 H     550  UNL550      0.1146
   2201 N          11.5152   25.0577    8.0771 N.3   551  UNL551     -0.3437
   2202 H          11.6990   24.0979    7.7886 H     551  UNL551      0.1146
   2203 H          12.2482   25.2960    8.7437 H     551  UNL551      0.1146
   2204 H          11.6847   25.6355    7.2550 H     551  UNL551      0.1146
   2205 N          10.6327   24.7328   10.6526 N.3   552  UNL552     -0.3437
   2206 H          10.7491   24.2196    9.7800 H     552  UNL552      0.1146
   2207 H          10.9814   24.1194   11.3879 H     552  UNL552      0.1146
   2208 H          11.2840   25.5152   10.6073 H     552  UNL552      0.1146
   2209 N          10.5939   25.0914   13.3588 N.3   553  UNL553     -0.3437
   2210 H          10.1522   24.2196   13.0703 H     553  UNL553      0.1146
   2211 H          11.3195   24.8314   14.0254 H     553  UNL553      0.1146
   2212 H          11.0814   25.4447   12.5367 H     553  UNL553      0.1146
   2213 N          10.8439   25.0932   16.0240 N.3   554  UNL554     -0.3437
   2214 H          10.4022   25.7011   15.3356 H     554  UNL554      0.1146
   2215 H          11.5695   24.5824   15.5230 H     554  UNL554      0.1146
   2216 H          11.3314   25.7104   16.6719 H     554  UNL554      0.1146
   2217 N          10.7189   25.0914   19.1404 N.3   555  UNL555     -0.3437
   2218 H          10.2772   24.2196   18.8519 H     555  UNL555      0.1146
   2219 H          11.4445   24.8314   19.8070 H     555  UNL555      0.1146
   2220 H          11.2064   25.4447   18.3183 H     555  UNL555      0.1146
   2221 N          10.6564   25.0248   22.3806 N.3   556  UNL556     -0.3437
   2222 H          10.6917   25.2043   21.3782 H     556  UNL556      0.1146
   2223 H          11.4630   24.4380   22.5894 H     556  UNL556      0.1146
   2224 H          10.8360   25.9201   22.8328 H     556  UNL556      0.1146
   2225 N          10.5385   27.6066    0.8563 N.3   557  UNL557     -0.3437
   2226 H          10.9546   27.9867    1.7052 H     557  UNL557      0.1146
   2227 H          11.2625   27.6586    0.1410 H     557  UNL557      0.1146
   2228 H          10.3916   26.6143    1.0354 H     557  UNL557      0.1146
   2229 N          10.9804   27.8709    4.9577 N.3   558  UNL558     -0.3437
   2230 H          10.4590   27.0205    4.7495 H     558  UNL558      0.1146
   2231 H          10.4054   28.3998    5.6120 H     558  UNL558      0.1146
   2232 H          11.8025   27.5750    5.4821 H     558  UNL558      0.1146
   2233 N          10.9789   28.0995    8.0965 N.3   559  UNL559     -0.3437
   2234 H          11.6201   28.3456    7.3437 H     559  UNL559      0.1146
   2235 H          10.0468   28.3383    7.7609 H     559  UNL559      0.1146
   2236 H          11.0013   27.0829    8.1635 H     559  UNL559      0.1146
   2237 N          10.7368   27.6066   10.6467 N.3   560  UNL560     -0.3437
   2238 H          11.5402   27.6102   11.2736 H     560  UNL560      0.1146
   2239 H          10.2533   28.4896   10.8048 H     560  UNL560      0.1146
   2240 H          11.1169   27.6598    9.7027 H     560  UNL560      0.1146
   2241 N          11.1551   28.0090   13.2368 N.3   561  UNL561     -0.3437
   2242 H          11.3537   27.0169   13.1159 H     561  UNL561      0.1146
   2243 H          10.4778   28.2499   12.5145 H     561  UNL561      0.1146
   2244 H          10.6605   28.0904   14.1240 H     561  UNL561      0.1146
   2245 N          11.0052   28.1751   16.4511 N.3   562  UNL562     -0.3437
   2246 H          11.7004   27.9411   17.1584 H     562  UNL562      0.1146
   2247 H          10.7744   27.2995   15.9837 H     562  UNL562      0.1146
   2248 H          10.1672   28.4504   16.9613 H     562  UNL562      0.1146
   2249 N          10.7189   28.0640   19.0571 N.3   563  UNL563     -0.3437
   2250 H          10.2772   28.3546   19.9282 H     563  UNL563      0.1146
   2251 H          11.4445   28.7536   18.8664 H     563  UNL563      0.1146
   2252 H          11.2064   27.1939   19.2660 H     563  UNL563      0.1146
   2253 N          10.8054   27.8678   22.0667 N.3   564  UNL564     -0.3437
   2254 H          10.2006   27.7931   22.8834 H     564  UNL564      0.1146
   2255 H          11.7089   27.4918   22.3508 H     564  UNL564      0.1146
   2256 H          10.4323   27.2135   21.3802 H     564  UNL564      0.1146
   2257 N          11.4180   30.2455    0.3364 N.3   565  UNL565     -0.3437
   2258 H          10.4705   30.2749   -0.0373 H     565  UNL565      0.1146
   2259 H          11.8988   29.5067   -0.1749 H     565  UNL565      0.1146
   2260 H          11.8599   31.1181    0.0505 H     565  UNL565      0.1146
   2261 N          10.4689   31.5437    2.3652 N.3   566  UNL566     -0.3437
   2262 H          10.0272   30.8655    1.7461 H     566  UNL566      0.1146
   2263 H          11.1945   31.0343    2.8677 H     566  UNL566      0.1146
   2264 H          10.9564   32.2018    1.7589 H     566  UNL566      0.1146
   2265 N          10.8061   30.7516    5.0276 N.3   567  UNL567     -0.3437
   2266 H          10.1131   30.3985    5.6859 H     567  UNL567      0.1146
   2267 H          11.6006   31.0522    5.5904 H     567  UNL567      0.1146
   2268 H          11.1275   29.9429    4.4974 H     567  UNL567      0.1146
   2269 N          10.5947   31.2170    7.8645 N.3   568  UNL568     -0.3437
   2270 H          10.1554   30.3455    7.5714 H     568  UNL568      0.1146
   2271 H           9.9647   31.6328    8.5490 H     568  UNL568      0.1146
   2272 H          11.4324   30.9500    8.3796 H     568  UNL568      0.1146
   2273 N          11.1476   30.3018   10.7488 N.3   569  UNL569     -0.3437
   2274 H          11.8455   31.0239   10.5761 H     569  UNL569      0.1146
   2275 H          10.3956   30.7559   11.2653 H     569  UNL569      0.1146
   2276 H          10.7584   30.0636    9.8377 H     569  UNL569      0.1146
   2277 N          10.7189   30.9294   13.4202 N.3   570  UNL570     -0.3437
   2278 H          10.2772   30.2149   12.8434 H     570  UNL570      0.1146
   2279 H          11.4445   30.4516   13.9527 H     570  UNL570      0.1146
   2280 H          11.2064   31.5494   12.7749 H     570  UNL570      0.1146
   2281 N          10.7189   31.4809   15.9996 N.3   571  UNL571     -0.3437
   2282 H          10.2772   30.6091   15.7111 H     571  UNL571      0.1146
   2283 H          11.4445   31.2210   16.6662 H     571  UNL571      0.1146
   2284 H          11.2064   31.8343   15.1775 H     571  UNL571      0.1146
   2285 N          10.5939   31.1332   19.3732 N.3   572  UNL572     -0.3437
   2286 H          10.1522   30.2670   19.6783 H     572  UNL572      0.1146
   2287 H          11.3195   31.3353   20.0596 H     572  UNL572      0.1146
   2288 H          11.0814   30.9098   18.5067 H     572  UNL572      0.1146
   2289 N          10.8033   30.4008   22.6012 N.3   573  UNL573     -0.3437
   2290 H          11.5706   29.8073   22.9131 H     573  UNL573      0.1146
   2291 H          11.1917   31.3388   22.5130 H     573  UNL573      0.1146
   2292 H          10.5815   30.0985   21.6537 H     573  UNL573      0.1146
   2293 N          10.3427   34.9037    0.9023 N.3   574  UNL574     -0.3437
   2294 H          11.1744   35.4871    0.9812 H     574  UNL574      0.1146
   2295 H           9.9537   35.0924   -0.0204 H     574  UNL574      0.1146
   2296 H          10.6763   33.9412    0.8749 H     574  UNL574      0.1146
   2297 N          10.9076   33.1955    4.5735 N.3   575  UNL575     -0.3437
   2298 H          11.4345   32.7492    3.8242 H     575  UNL575      0.1146
   2299 H          11.3295   34.1137    4.7052 H     575  UNL575      0.1146
   2300 H           9.9756   33.3660    4.1984 H     575  UNL575      0.1146
   2301 N          10.8132   33.5727    7.2021 N.3   576  UNL576     -0.3437
   2302 H          11.6009   32.9942    6.9136 H     576  UNL576      0.1146
   2303 H          11.1885   34.2459    7.8687 H     576  UNL576      0.1146
   2304 H          10.5445   34.1115    6.3800 H     576  UNL576      0.1146
   2305 N          10.6223   33.4074   10.3266 N.3   577  UNL577     -0.3437
   2306 H          10.8193   32.5925   10.9058 H     577  UNL577      0.1146
   2307 H          11.1174   34.1859   10.7593 H     577  UNL577      0.1146
   2308 H          11.0882   33.2385    9.4362 H     577  UNL577      0.1146
   2309 N          10.6762   33.8171   13.0914 N.3   578  UNL578     -0.3437
   2310 H          11.3550   33.3039   12.5310 H     578  UNL578      0.1146
   2311 H          10.4316   33.2038   13.8676 H     578  UNL578      0.1146
   2312 H          11.1844   34.5995   13.5012 H     578  UNL578      0.1146
   2313 N          10.5939   34.1242   16.0610 N.3   579  UNL579     -0.3437
   2314 H          10.1522   33.4096   15.4842 H     579  UNL579      0.1146
   2315 H          11.3195   33.6464   16.5935 H     579  UNL579      0.1146
   2316 H          11.0814   34.7442   15.4158 H     579  UNL579      0.1146
   2317 N          10.5939   34.3007   19.1404 N.3   580  UNL580     -0.3437
   2318 H          10.1522   33.4289   18.8519 H     580  UNL580      0.1146
   2319 H          11.3195   34.0408   19.8070 H     580  UNL580      0.1146
   2320 H          11.0814   34.6540   18.3183 H     580  UNL580      0.1146
   2321 N          10.1248   33.6910   22.0395 N.3   581  UNL581     -0.3437
   2322 H           9.5647   32.9005   22.3554 H     581  UNL581      0.1146
   2323 H          10.6203   34.0310   22.8625 H     581  UNL581      0.1146
   2324 H          10.8374   33.3019   21.4236 H     581  UNL581      0.1146
   2325 N          10.6481   37.2733   -0.4506 N.3   582  UNL582     -0.3437
   2326 H          11.3800   37.5639    0.1961 H     582  UNL582      0.1146
   2327 H          10.6462   37.9629   -1.2009 H     582  UNL582      0.1146
   2328 H          10.9730   36.4032   -0.8699 H     582  UNL582      0.1146
   2329 N          10.5939   37.2733    2.3372 N.3   583  UNL583     -0.3437
   2330 H          10.1522   37.5639    3.2083 H     583  UNL583      0.1146
   2331 H          11.3195   37.9629    2.1465 H     583  UNL583      0.1146
   2332 H          11.0814   36.4032    2.5461 H     583  UNL583      0.1146
   2333 N          10.7189   37.0233    5.2280 N.3   584  UNL584     -0.3437
   2334 H          10.2772   37.3139    6.0991 H     584  UNL584      0.1146
   2335 H          11.4445   37.7129    5.0373 H     584  UNL584      0.1146
   2336 H          11.2064   36.1532    5.4369 H     584  UNL584      0.1146
   2337 N          11.7095   36.0931    7.5113 N.3   585  UNL585     -0.3437
   2338 H          10.7186   36.2503    7.6898 H     585  UNL585      0.1146
   2339 H          12.0952   36.9996    7.2507 H     585  UNL585      0.1146
   2340 H          12.1238   35.8604    8.4128 H     585  UNL585      0.1146
   2341 N          10.8369   37.3205    9.9413 N.3   586  UNL586     -0.3437
   2342 H           9.8835   37.5755   10.1949 H     586  UNL586      0.1146
   2343 H          11.4451   37.9284   10.4880 H     586  UNL586      0.1146
   2344 H          10.9817   36.3791   10.3036 H     586  UNL586      0.1146
   2345 N          10.6821   37.1328   13.0430 N.3   587  UNL587     -0.3437
   2346 H          11.3328   36.6452   13.6572 H     587  UNL587      0.1146
   2347 H          10.3997   37.9740   13.5440 H     587  UNL587      0.1146
   2348 H          11.2325   37.4515   12.2469 H     587  UNL587      0.1146
   2349 N          11.1627   36.7702   15.8745 N.3   588  UNL588     -0.3437
   2350 H          10.4549   36.4373   15.2213 H     588  UNL588      0.1146
   2351 H          11.2989   37.7574   15.6619 H     588  UNL588      0.1146
   2352 H          10.7307   36.7385   16.7968 H     588  UNL588      0.1146
   2353 N          10.7189   37.2733   18.5571 N.3   589  UNL589     -0.3437
   2354 H          10.2772   37.5639   19.4282 H     589  UNL589      0.1146
   2355 H          11.4445   37.9629   18.3664 H     589  UNL589      0.1146
   2356 H          11.2064   36.4032   18.7660 H     589  UNL589      0.1146
   2357 N          11.7762   36.6330   21.3230 N.3   590  UNL590     -0.3437
   2358 H          11.2800   37.4231   20.9132 H     590  UNL590      0.1146
   2359 H          11.0933   36.1391   21.8959 H     590  UNL590      0.1146
   2360 H          11.9977   36.0083   20.5490 H     590  UNL590      0.1146
   2361 N          13.9830   -0.4990    1.1521 N.3   591  UNL591     -0.3437
   2362 H          13.2127   -0.2864    1.7844 H     591  UNL591      0.1146
   2363 H          14.6820    0.2260    1.3073 H     591  UNL591      0.1146
   2364 H          14.3963   -1.3654    1.4942 H     591  UNL591      0.1146
   2365 N          13.5363   -0.5499    4.2361 N.3   592  UNL592     -0.3437
   2366 H          14.2895   -0.8471    4.8548 H     592  UNL592      0.1146
   2367 H          13.1162   -1.4048    3.8742 H     592  UNL592      0.1146
   2368 H          12.8319   -0.1230    4.8361 H     592  UNL592      0.1146
   2369 N          13.6883   -0.4920    7.9612 N.3   593  UNL593     -0.3437
   2370 H          13.8261   -0.7949    6.9981 H     593  UNL593      0.1146
   2371 H          12.9140    0.1702    7.9393 H     593  UNL593      0.1146
   2372 H          13.3455   -1.3081    8.4660 H     593  UNL593      0.1146
   2373 N          13.2235   -0.3986   10.7117 N.3   594  UNL594     -0.3437
   2374 H          13.8932   -0.9300   10.1572 H     594  UNL594      0.1146
   2375 H          13.7635    0.0499   11.4504 H     594  UNL594      0.1146
   2376 H          12.8938    0.3537   10.1086 H     594  UNL594      0.1146
   2377 N          13.4444   -1.4514   12.9256 N.3   595  UNL595     -0.3437
   2378 H          14.3747   -1.0730   13.0980 H     595  UNL595      0.1146
   2379 H          13.0848   -1.7380   13.8350 H     595  UNL595      0.1146
   2380 H          12.8700   -0.6624   12.6325 H     595  UNL595      0.1146
   2381 N          13.5977   -0.4568   16.0918 N.3   596  UNL596     -0.3437
   2382 H          13.1125    0.1548   15.4368 H     596  UNL596      0.1146
   2383 H          12.8811   -1.0544   16.5015 H     596  UNL596      0.1146
   2384 H          14.1826   -1.0684   15.5243 H     596  UNL596      0.1146
   2385 N          13.8624   -0.5910   19.2274 N.3   597  UNL597     -0.3437
   2386 H          13.2251   -1.2602   19.6568 H     597  UNL597      0.1146
   2387 H          14.4078   -1.1189   18.5476 H     597  UNL597      0.1146
   2388 H          13.2787    0.0452   18.6861 H     597  UNL597      0.1146
   2389 N          13.2594   -0.4266   22.5070 N.3   598  UNL598     -0.3437
   2390 H          12.6143    0.2956   22.8243 H     598  UNL598      0.1146
   2391 H          12.8205   -0.8584   21.6951 H     598  UNL598      0.1146
   2392 H          14.0797    0.0646   22.1547 H     598  UNL598      0.1146
   2393 N          13.8756    2.6582    0.0297 N.3   599  UNL599     -0.3437
   2394 H          13.4339    1.7864   -0.2588 H     599  UNL599      0.1146
   2395 H          14.6012    2.3982    0.6963 H     599  UNL599      0.1146
   2396 H          14.3631    3.0115   -0.7924 H     599  UNL599      0.1146
   2397 N          13.7506    1.8463    2.7834 N.3   600  UNL600     -0.3437
   2398 H          13.3089    1.6339    1.8900 H     600  UNL600      0.1146
   2399 H          14.4762    1.1426    2.9124 H     600  UNL600      0.1146
   2400 H          14.2381    2.7315    2.6522 H     600  UNL600      0.1146
   2401 N          13.8743    1.8385    5.1600 N.3   601  UNL601     -0.3437
   2402 H          14.1519    2.7073    5.6146 H     601  UNL601      0.1146
   2403 H          14.3626    1.0938    5.6554 H     601  UNL601      0.1146
   2404 H          12.8852    1.7147    5.3712 H     601  UNL601      0.1146
   2405 N          14.1600    2.2355    8.0771 N.3   602  UNL602     -0.3437
   2406 H          13.2773    1.8160    7.7886 H     602  UNL602      0.1146
   2407 H          14.5750    1.5860    8.7437 H     602  UNL602      0.1146
   2408 H          14.7618    2.2168    7.2550 H     602  UNL602      0.1146
   2409 N          13.3756    2.3463   10.5809 N.3   603  UNL603     -0.3437
   2410 H          12.9339    2.1339    9.6875 H     603  UNL603      0.1146
   2411 H          14.1012    1.6426   10.7099 H     603  UNL603      0.1146
   2412 H          13.8631    3.2315   10.4497 H     603  UNL603      0.1146
   2413 N          13.6725    1.4855   13.1741 N.3   604  UNL604     -0.3437
   2414 H          13.2433    1.0660   13.9976 H     604  UNL604      0.1146
   2415 H          14.3981    0.8360   12.8738 H     604  UNL604      0.1146
   2416 H          12.9601    1.4668   12.4457 H     604  UNL604      0.1146
   2417 N          13.7506    2.3328   16.0705 N.3   605  UNL605     -0.3437
   2418 H          13.3089    2.7111   15.2338 H     605  UNL605      0.1146
   2419 H          14.4762    1.6971   15.7421 H     605  UNL605      0.1146
   2420 H          14.2381    3.1133   16.5081 H     605  UNL605      0.1146
   2421 N          12.9015    2.2612   18.3306 N.3   606  UNL606     -0.3437
   2422 H          12.3694    1.8609   19.1020 H     606  UNL606      0.1146
   2423 H          12.3110    2.9885   17.9297 H     606  UNL606      0.1146
   2424 H          13.6921    2.7437   18.7554 H     606  UNL606      0.1146
   2425 N          13.5419    2.1419   21.4697 N.3   607  UNL607     -0.3437
   2426 H          13.6796    2.1719   22.4789 H     607  UNL607      0.1146
   2427 H          13.8210    3.0577   21.1208 H     607  UNL607      0.1146
   2428 H          14.2316    1.4828   21.1116 H     607  UNL607      0.1146
   2429 N          13.7828    5.3158   -0.0231 N.3   608  UNL608     -0.3437
   2430 H          14.2725    5.8996    0.6536 H     608  UNL608      0.1146
   2431 H          14.4994    4.7524   -0.4786 H     608  UNL608      0.1146
   2432 H          13.2193    4.6655    0.5227 H     608  UNL608      0.1146
   2433 N          12.9449    4.6657    2.7916 N.3   609  UNL609     -0.3437
   2434 H          12.2345    3.9875    3.0633 H     609  UNL609      0.1146
   2435 H          13.6138    4.1564    2.2159 H     609  UNL609      0.1146
   2436 H          12.4808    5.3238    2.1672 H     609  UNL609      0.1146
   2437 N          13.0006    5.2467    5.2304 N.3   610  UNL610     -0.3437
   2438 H          12.5589    5.7707    4.4763 H     610  UNL610      0.1146
   2439 H          13.7262    4.6812    4.7921 H     610  UNL610      0.1146
   2440 H          13.4881    5.9348    5.8025 H     610  UNL610      0.1146
   2441 N          13.7441    4.9743    7.6221 N.3   611  UNL611     -0.3437
   2442 H          13.1717    5.8172    7.6402 H     611  UNL611      0.1146
   2443 H          14.7102    5.2921    7.5588 H     611  UNL611      0.1146
   2444 H          13.6479    4.5497    8.5434 H     611  UNL611      0.1146
   2445 N          13.2338    5.3529   10.6877 N.3   612  UNL612     -0.3437
   2446 H          12.7079    4.4811   10.7297 H     612  UNL612      0.1146
   2447 H          14.2156    5.0930   10.7713 H     612  UNL612      0.1146
   2448 H          13.1166    5.7063    9.7392 H     612  UNL612      0.1146
   2449 N          13.1256    4.6661   13.3467 N.3   613  UNL613     -0.3437
   2450 H          12.6839    4.4536   12.4533 H     613  UNL613      0.1146
   2451 H          13.8512    3.9624   13.4757 H     613  UNL613      0.1146
   2452 H          13.6131    5.5513   13.2155 H     613  UNL613      0.1146
   2453 N          13.2506    5.4779   15.7496 N.3   614  UNL614     -0.3437
   2454 H          12.8089    4.6061   15.4611 H     614  UNL614      0.1146
   2455 H          13.9762    5.2180   16.4162 H     614  UNL614      0.1146
   2456 H          13.7381    5.8313   14.9275 H     614  UNL614      0.1146
   2457 N          13.2438    5.4247   19.8203 N.3   615  UNL615     -0.3437
   2458 H          14.1356    5.3009   20.2974 H     615  UNL615      0.1146
   2459 H          13.4550    5.9164   18.9531 H     615  UNL615      0.1146
   2460 H          12.9396    4.4914   19.5469 H     615  UNL615      0.1146
   2461 N          13.6486    5.0228   22.7869 N.3   616  UNL616     -0.3437
   2462 H          14.4737    4.4293   22.8592 H     616  UNL616      0.1146
   2463 H          13.9938    5.9608   22.5883 H     616  UNL616      0.1146
   2464 H          13.1578    4.7205   21.9466 H     616  UNL616      0.1146
   2465 N          13.3580    8.1219   -0.4196 N.3   617  UNL617     -0.3437
   2466 H          12.5877    7.5635   -0.0548 H     617  UNL617      0.1146
   2467 H          14.0570    8.1542    0.3211 H     617  UNL617      0.1146
   2468 H          13.7713    7.5728   -1.1720 H     617  UNL617      0.1146
   2469 N          13.6325    7.6078    2.7523 N.3   618  UNL618     -0.3437
   2470 H          13.7301    7.2246    1.8131 H     618  UNL618      0.1146
   2471 H          13.7533    8.6152    2.6585 H     618  UNL618      0.1146
   2472 H          12.6581    7.4649    3.0141 H     618  UNL618      0.1146
   2473 N          13.8329    8.0590    5.4572 N.3   619  UNL619     -0.3437
   2474 H          14.4747    8.2354    4.6856 H     619  UNL619      0.1146
   2475 H          13.2002    8.8573    5.4843 H     619  UNL619      0.1146
   2476 H          13.2661    7.2609    5.1742 H     619  UNL619      0.1146
   2477 N          13.8029    7.5538    8.0793 N.3   620  UNL620     -0.3437
   2478 H          12.9070    7.6527    7.6040 H     620  UNL620      0.1146
   2479 H          14.4558    7.2061    7.3785 H     620  UNL620      0.1146
   2480 H          14.1083    8.4999    8.3028 H     620  UNL620      0.1146
   2481 N          13.3756    7.8609   10.7059 N.3   621  UNL621     -0.3437
   2482 H          12.9339    7.6484    9.8125 H     621  UNL621      0.1146
   2483 H          14.1012    7.1571   10.8349 H     621  UNL621      0.1146
   2484 H          13.8631    8.7460   10.5747 H     621  UNL621      0.1146
   2485 N          13.7260    7.8594   13.3041 N.3   622  UNL622     -0.3437
   2486 H          12.9862    7.7013   12.6216 H     622  UNL622      0.1146
   2487 H          14.2943    8.6189   12.9315 H     622  UNL622      0.1146
   2488 H          13.2675    8.2329   14.1340 H     622  UNL622      0.1146
   2489 N          14.5529    7.8510   15.6222 N.3   623  UNL623     -0.3437
   2490 H          13.6570    8.2227   15.9346 H     623  UNL623      0.1146
   2491 H          15.2058    8.6329   15.6481 H     623  UNL623      0.1146
   2492 H          14.8583    7.2059   16.3495 H     623  UNL623      0.1146
   2493 N          13.3774    8.0694   18.5218 N.3   624  UNL624     -0.3437
   2494 H          12.9870    7.5066   17.7674 H     624  UNL624      0.1146
   2495 H          14.2052    8.5213   18.1357 H     624  UNL624      0.1146
   2496 H          12.7044    8.8152   18.6929 H     624  UNL624      0.1146
   2497 N          13.5170    8.4442   21.2590 N.3   625  UNL625     -0.3437
   2498 H          12.5986    8.6868   20.8901 H     625  UNL625      0.1146
   2499 H          13.3715    8.2028   22.2383 H     625  UNL625      0.1146
   2500 H          13.7869    7.5788   20.7936 H     625  UNL625      0.1146
   2501 N          14.2571   10.7071   -0.2731 N.3   626  UNL626     -0.3437
   2502 H          13.5451   10.4359    0.4036 H     626  UNL626      0.1146
   2503 H          13.9057   11.5482   -0.7286 H     626  UNL626      0.1146
   2504 H          15.0661   11.0004    0.2727 H     626  UNL626      0.1146
   2505 N          13.3756   11.4925    2.4205 N.3   627  UNL627     -0.3437
   2506 H          12.9339   10.6207    2.1320 H     627  UNL627      0.1146
   2507 H          14.1012   11.2326    3.0871 H     627  UNL627      0.1146
   2508 H          13.8631   11.8458    1.5984 H     627  UNL627      0.1146
   2509 N          13.4625   10.7819    4.9248 N.3   628  UNL628     -0.3437
   2510 H          12.7385   10.6681    5.6328 H     628  UNL628      0.1146
   2511 H          13.9115   11.6749    5.1232 H     628  UNL628      0.1146
   2512 H          14.1615   10.0667    5.1204 H     628  UNL628      0.1146
   2513 N          13.6256   10.4925    7.7021 N.3   629  UNL629     -0.3437
   2514 H          13.1839    9.6207    7.4136 H     629  UNL629      0.1146
   2515 H          14.3512   10.2326    8.3687 H     629  UNL629      0.1146
   2516 H          14.1131   10.8458    6.8800 H     629  UNL629      0.1146
   2517 N          13.4030   11.2222   10.6540 N.3   630  UNL630     -0.3437
   2518 H          14.3190   11.6213   10.4538 H     630  UNL630      0.1146
   2519 H          12.9727   11.0386    9.7487 H     630  UNL630      0.1146
   2520 H          13.5793   10.3095   11.0714 H     630  UNL630      0.1146
   2521 N          13.5870   11.1559   13.0130 N.3   631  UNL631     -0.3437
   2522 H          13.1651   10.2460   12.8327 H     631  UNL631      0.1146
   2523 H          12.8281   11.7608   13.3238 H     631  UNL631      0.1146
   2524 H          14.1938   11.0288   13.8217 H     631  UNL631      0.1146
   2525 N          13.8756   10.7017   15.9659 N.3   632  UNL632     -0.3437
   2526 H          13.4339   10.9244   15.0751 H     632  UNL632      0.1146
   2527 H          14.6012   10.0176   15.7565 H     632  UNL632      0.1146
   2528 H          14.3631   11.5479   16.2570 H     632  UNL632      0.1146
   2529 N          13.1256   11.2043   18.6191 N.3   633  UNL633     -0.3437
   2530 H          12.6839   10.7057   19.3902 H     633  UNL633      0.1146
   2531 H          13.8512   11.7840   19.0384 H     633  UNL633      0.1146
   2532 H          13.6131   10.4976   18.0702 H     633  UNL633      0.1146
   2533 N          13.5768   10.8053   21.9417 N.3   634  UNL634     -0.3437
   2534 H          14.0458   11.1944   22.7584 H     634  UNL634      0.1146
   2535 H          12.6132   10.6345   22.2258 H     634  UNL634      0.1146
   2536 H          13.5381   11.5574   21.2552 H     634  UNL634      0.1146
   2537 N          13.8662   14.1530    0.7490 N.3   635  UNL635     -0.3437
   2538 H          12.8753   13.9175    0.7819 H     635  UNL635      0.1146
   2539 H          14.2519   13.8711    1.6491 H     635  UNL635      0.1146
   2540 H          14.2805   13.5290    0.0581 H     635  UNL635      0.1146
   2541 N          13.5006   14.0901    3.4780 N.3   636  UNL636     -0.3437
   2542 H          13.0589   14.3807    4.3491 H     636  UNL636      0.1146
   2543 H          14.2262   14.7797    3.2873 H     636  UNL636      0.1146
   2544 H          13.9881   13.2200    3.6869 H     636  UNL636      0.1146
   2545 N          13.5776   13.5200    6.0753 N.3   637  UNL637     -0.3437
   2546 H          13.3970   14.3528    6.6340 H     637  UNL637      0.1146
   2547 H          14.3335   13.7677    5.4383 H     637  UNL637      0.1146
   2548 H          13.9659   12.8301    6.7169 H     637  UNL637      0.1146
   2549 N          13.6130   13.3787    9.0044 N.3   638  UNL638     -0.3437
   2550 H          13.2054   14.2701    8.7259 H     638  UNL638      0.1146
   2551 H          13.1602   13.1245    9.8812 H     638  UNL638      0.1146
   2552 H          13.2953   12.6974    8.3165 H     638  UNL638      0.1146
   2553 N          13.3866   13.6513   12.0435 N.3   639  UNL639     -0.3437
   2554 H          14.2689   13.4327   12.5042 H     639  UNL639      0.1146
   2555 H          13.6327   14.1300   11.1782 H     639  UNL639      0.1146
   2556 H          12.9858   12.7567   11.7653 H     639  UNL639      0.1146
   2557 N          13.2506   13.7145   15.7324 N.3   640  UNL640     -0.3437
   2558 H          12.8089   12.8484   16.0374 H     640  UNL640      0.1146
   2559 H          13.9762   13.9166   16.4187 H     640  UNL640      0.1146
   2560 H          13.7381   13.4912   14.8659 H     640  UNL640      0.1146
   2561 N          13.1256   14.0623   19.1404 N.3   641  UNL641     -0.3437
   2562 H          12.6839   13.1905   18.8519 H     641  UNL641      0.1146
   2563 H          13.8512   13.8023   19.8070 H     641  UNL641      0.1146
   2564 H          13.6131   14.4156   18.3183 H     641  UNL641      0.1146
   2565 N          12.8564   13.5404   22.3810 N.3   642  UNL642     -0.3437
   2566 H          13.7304   13.5744   22.9039 H     642  UNL642      0.1146
   2567 H          12.4455   12.6293   22.5797 H     642  UNL642      0.1146
   2568 H          12.2417   14.2266   22.8164 H     642  UNL642      0.1146
   2569 N          13.3882   16.7475    2.0936 N.3   643  UNL643     -0.3437
   2570 H          13.0762   15.8169    1.8195 H     643  UNL643      0.1146
   2571 H          14.3811   16.7886    1.8681 H     643  UNL643      0.1146
   2572 H          12.9285   17.3967    1.4568 H     643  UNL643      0.1146
   2573 N          13.6421   16.3886    4.7229 N.3   644  UNL644     -0.3437
   2574 H          14.4526   16.8053    5.1788 H     644  UNL644      0.1146
   2575 H          13.1351   15.8896    5.4524 H     644  UNL644      0.1146
   2576 H          13.0442   17.1663    4.4471 H     644  UNL644      0.1146
   2577 N          13.9651   16.6659    7.6062 N.3   645  UNL645     -0.3437
   2578 H          13.1715   16.0807    7.3491 H     645  UNL645      0.1146
   2579 H          13.5881   17.4082    8.1938 H     645  UNL645      0.1146
   2580 H          14.5493   16.0950    8.2154 H     645  UNL645      0.1146
   2581 N          13.4047   16.5173   10.6838 N.3   646  UNL646     -0.3437
   2582 H          12.6758   15.8056   10.7101 H     646  UNL646      0.1146
   2583 H          13.7642   16.5161    9.7303 H     646  UNL646      0.1146
   2584 H          12.9293   17.4107   10.8036 H     646  UNL646      0.1146
   2585 N          13.4559   15.5576   13.6183 N.3   647  UNL647     -0.3437
   2586 H          12.7660   15.0296   13.0858 H     647  UNL647      0.1146
   2587 H          14.2184   14.9094   13.8105 H     647  UNL647      0.1146
   2588 H          13.8337   16.2532   12.9766 H     647  UNL647      0.1146
   2589 N          13.5549   16.5766   15.6886 N.3   648  UNL648     -0.3437
   2590 H          14.1650   15.8841   16.1205 H     648  UNL648      0.1146
   2591 H          13.4847   17.3440   16.3555 H     648  UNL648      0.1146
   2592 H          14.0693   16.9450   14.8898 H     648  UNL648      0.1146
   2593 N          14.0413   16.7107   19.2233 N.3   649  UNL649     -0.3437
   2594 H          13.3799   16.3772   18.5234 H     649  UNL649      0.1146
   2595 H          13.5613   16.6402   20.1194 H     649  UNL649      0.1146
   2596 H          14.7915   16.0217   19.2516 H     649  UNL649      0.1146
   2597 N          13.8515   16.2296   22.6278 N.3   650  UNL650     -0.3437
   2598 H          13.5752   15.8450   21.7255 H     650  UNL650      0.1146
   2599 H          14.7069   16.7569   22.4584 H     650  UNL650      0.1146
   2600 H          13.1403   16.9183   22.8693 H     650  UNL650      0.1146
   2601 N          13.6276   19.5919    0.1185 N.3   651  UNL651     -0.3437
   2602 H          13.2083   19.9651   -0.7320 H     651  UNL651      0.1146
   2603 H          12.9782   18.8877    0.4662 H     651  UNL651      0.1146
   2604 H          14.4599   19.0843   -0.1780 H     651  UNL651      0.1146
   2605 N          11.2506   19.2244    2.4005 N.3   652  UNL652     -0.3437
   2606 H          10.8089   19.9872    2.9118 H     652  UNL652      0.1146
   2607 H          11.9762   19.6533    1.8278 H     652  UNL652      0.1146
   2608 H          11.7381   18.6639    3.0979 H     652  UNL652      0.1146
   2609 N          13.4260   19.6564    5.0503 N.3   653  UNL653     -0.3437
   2610 H          12.6934   19.5831    5.7548 H     653  UNL653      0.1146
   2611 H          14.1379   18.9765    5.3136 H     653  UNL653      0.1146
   2612 H          13.0167   19.3128    4.1827 H     653  UNL653      0.1146
   2613 N          14.1374   19.6243    7.2006 N.3   654  UNL654     -0.3437
   2614 H          13.3215   19.1745    7.6131 H     654  UNL654      0.1146
   2615 H          14.4491   20.3176    7.8794 H     654  UNL654      0.1146
   2616 H          14.8660   18.9125    7.1715 H     654  UNL654      0.1146
   2617 N          14.3505   19.3033    9.7812 N.3   655  UNL655     -0.3437
   2618 H          14.0830   18.3217    9.7255 H     655  UNL655      0.1146
   2619 H          13.6948   19.8073    9.1858 H     655  UNL655      0.1146
   2620 H          14.1458   19.5965   10.7354 H     655  UNL655      0.1146
   2621 N          13.6712   18.4832   12.4926 N.3   656  UNL656     -0.3437
   2622 H          13.7344   19.4454   12.8222 H     656  UNL656      0.1146
   2623 H          14.6303   18.1451   12.4275 H     656  UNL656      0.1146
   2624 H          13.2381   17.9551   13.2488 H     656  UNL656      0.1146
   2625 N          14.1884   19.6278   15.2513 N.3   657  UNL657     -0.3437
   2626 H          14.8284   19.1205   14.6418 H     657  UNL657      0.1146
   2627 H          13.3575   19.8156   14.6921 H     657  UNL657      0.1146
   2628 H          13.8996   18.9649   15.9693 H     657  UNL657      0.1146
   2629 N          13.6256   19.5975   18.5915 N.3   658  UNL658     -0.3437
   2630 H          13.1839   18.6823   18.5165 H     658  UNL658      0.1146
   2631 H          14.3512   19.5019   19.3005 H     658  UNL658      0.1146
   2632 H          14.1131   19.7472   17.7093 H     658  UNL658      0.1146
   2633 N          13.1491   18.6787   21.1640 N.3   659  UNL659     -0.3437
   2634 H          12.9774   19.6199   20.8133 H     659  UNL659      0.1146
   2635 H          14.1449   18.5072   21.0324 H     659  UNL659      0.1146
   2636 H          13.0025   18.7231   22.1714 H     659  UNL659      0.1146
   2637 N          13.2472   23.0418   -0.2584 N.3   660  UNL660     -0.3437
   2638 H          13.9013   22.9105   -1.0286 H     660  UNL660      0.1146
   2639 H          12.8080   22.1351   -0.1053 H     660  UNL660      0.1146
   2640 H          13.8174   23.2206    0.5670 H     660  UNL660      0.1146
   2641 N          13.2966   21.3834    2.3372 N.3   661  UNL661     -0.3437
   2642 H          12.9042   21.0291    3.2083 H     661  UNL661      0.1146
   2643 H          12.8118   22.2592    2.1465 H     661  UNL661      0.1146
   2644 H          14.2614   21.6362    2.5461 H     661  UNL661      0.1146
   2645 N          13.8242   22.4168    5.1998 N.3   662  UNL662     -0.3437
   2646 H          13.6571   23.1800    4.5456 H     662  UNL662      0.1146
   2647 H          12.9164   21.9839    5.3640 H     662  UNL662      0.1146
   2648 H          14.3763   21.7272    4.6918 H     662  UNL662      0.1146
   2649 N          13.6712   22.5730    7.7168 N.3   663  UNL663     -0.3437
   2650 H          14.4083   22.1626    8.2882 H     663  UNL663      0.1146
   2651 H          13.0000   21.8257    7.5450 H     663  UNL663      0.1146
   2652 H          13.1945   23.2466    8.3146 H     663  UNL663      0.1146
   2653 N          13.7277   21.5837   10.5260 N.3   664  UNL664     -0.3437
   2654 H          13.5103   20.7969   11.1359 H     664  UNL664      0.1146
   2655 H          13.0933   21.5075    9.7322 H     664  UNL664      0.1146
   2656 H          13.4427   22.4199   11.0339 H     664  UNL664      0.1146
   2657 N          13.6256   22.4249   13.4493 N.3   665  UNL665     -0.3437
   2658 H          13.1839   21.8684   12.7189 H     665  UNL665      0.1146
   2659 H          14.3512   21.8339   13.8526 H     665  UNL665      0.1146
   2660 H          14.1131   23.1808   12.9704 H     665  UNL665      0.1146
   2661 N          13.6256   22.4245   16.1663 N.3   666  UNL666     -0.3437
   2662 H          13.1839   22.7151   17.0374 H     666  UNL666      0.1146
   2663 H          14.3512   23.1141   15.9756 H     666  UNL666      0.1146
   2664 H          14.1131   21.5544   16.3752 H     666  UNL666      0.1146
   2665 N          13.5597   22.3254   19.5883 N.3   667  UNL667     -0.3437
   2666 H          13.4736   23.0495   20.3001 H     667  UNL667      0.1146
   2667 H          13.9968   22.7729   18.7838 H     667  UNL667      0.1146
   2668 H          14.2439   21.6602   19.9456 H     667  UNL667      0.1146
   2669 N          13.6346   21.8165   22.6455 N.3   668  UNL668     -0.3437
   2670 H          13.9123   21.2229   21.8652 H     668  UNL668      0.1146
   2671 H          13.5293   22.7544   22.2614 H     668  UNL668      0.1146
   2672 H          12.6978   21.5141   22.9090 H     668  UNL668      0.1146
   2673 N          12.3085   25.2731   -0.5739 N.3   669  UNL669     -0.3437
   2674 H          11.7313   26.0867   -0.7822 H     669  UNL669      0.1146
   2675 H          13.0208   25.5940    0.0803 H     669  UNL669      0.1146
   2676 H          11.7134   24.6333   -0.0495 H     669  UNL669      0.1146
   2677 N          13.2506   24.4045    2.5334 N.3   670  UNL670     -0.3437
   2678 H          12.8089   24.1921    1.6400 H     670  UNL670      0.1146
   2679 H          13.9762   23.7008    2.6624 H     670  UNL670      0.1146
   2680 H          13.7381   25.2897    2.4022 H     670  UNL670      0.1146
   2681 N          13.9868   25.8429    4.9680 N.3   671  UNL671     -0.3437
   2682 H          14.4106   26.1053    5.8568 H     671  UNL671      0.1146
   2683 H          13.8021   24.8427    5.0292 H     671  UNL671      0.1146
   2684 H          13.0744   26.2962    4.9473 H     671  UNL671      0.1146
   2685 N          14.4594   25.0939    7.7339 N.3   672  UNL672     -0.3437
   2686 H          13.9857   25.8809    8.1750 H     672  UNL672      0.1146
   2687 H          14.5048   24.3614    8.4409 H     672  UNL672      0.1146
   2688 H          13.8241   24.7509    7.0148 H     672  UNL672      0.1146
   2689 N          13.2821   24.4047   10.8545 N.3   673  UNL673     -0.3437
   2690 H          13.3186   25.3051   10.3787 H     673  UNL673      0.1146
   2691 H          12.9226   23.7401   10.1708 H     673  UNL673      0.1146
   2692 H          14.2507   24.1371   11.0239 H     673  UNL673      0.1146
   2693 N          13.1256   25.0914   13.3588 N.3   674  UNL674     -0.3437
   2694 H          12.6839   24.2196   13.0703 H     674  UNL674      0.1146
   2695 H          13.8512   24.8314   14.0254 H     674  UNL674      0.1146
   2696 H          13.6131   25.4447   12.5367 H     674  UNL674      0.1146
   2697 N          13.7524   25.2164   16.1032 N.3   675  UNL675     -0.3437
   2698 H          13.3620   24.3446   16.4581 H     675  UNL675      0.1146
   2699 H          14.5801   24.9564   15.5687 H     675  UNL675      0.1146
   2700 H          13.0794   25.5697   15.4245 H     675  UNL675      0.1146
   2701 N          13.2506   25.3414   18.8904 N.3   676  UNL676     -0.3437
   2702 H          12.8089   24.4696   18.6019 H     676  UNL676      0.1146
   2703 H          13.9762   25.0814   19.5570 H     676  UNL676      0.1146
   2704 H          13.7381   25.6947   18.0683 H     676  UNL676      0.1146
   2705 N          13.5419   25.1363   22.0667 N.3   677  UNL677     -0.3437
   2706 H          13.6796   24.5427   22.8834 H     677  UNL677      0.1146
   2707 H          13.8210   26.0742   22.3508 H     677  UNL677      0.1146
   2708 H          14.2316   24.8339   21.3802 H     677  UNL677      0.1146
   2709 N          13.8019   28.0640    0.5157 N.3   678  UNL678     -0.3437
   2710 H          12.9197   28.3546    0.9346 H     678  UNL678      0.1146
   2711 H          14.4926   28.7536    0.8086 H     678  UNL678      0.1146
   2712 H          14.0598   27.1939    0.9791 H     678  UNL678      0.1146
   2713 N          13.2040   27.8130    3.2295 N.3   679  UNL679     -0.3437
   2714 H          12.5994   28.3819    2.6386 H     679  UNL679      0.1146
   2715 H          12.8529   26.8593    3.1549 H     679  UNL679      0.1146
   2716 H          14.1176   27.8120    2.7782 H     679  UNL679      0.1146
   2717 N          14.2385   27.8234    7.4621 N.3   680  UNL680     -0.3437
   2718 H          15.0212   27.3790    6.9844 H     680  UNL680      0.1146
   2719 H          14.5276   28.7840    7.6414 H     680  UNL680      0.1146
   2720 H          13.4866   27.8798    6.7767 H     680  UNL680      0.1146
   2721 N          14.2562   27.9390   10.3803 N.3   681  UNL681     -0.3437
   2722 H          13.3245   28.2296   10.0873 H     681  UNL681      0.1146
   2723 H          14.5632   28.6286   11.0649 H     681  UNL681      0.1146
   2724 H          14.1300   27.0689   10.8954 H     681  UNL681      0.1146
   2725 N          13.5489   27.9391   13.1613 N.3   682  UNL682     -0.3437
   2726 H          12.9428   27.3139   13.6906 H     682  UNL682      0.1146
   2727 H          14.2857   27.3529   12.7718 H     682  UNL682      0.1146
   2728 H          12.9965   28.2604   12.3675 H     682  UNL682      0.1146
   2729 N          14.0006   27.9390   15.2913 N.3   683  UNL683     -0.3437
   2730 H          13.5589   28.2296   16.1624 H     683  UNL683      0.1146
   2731 H          14.7262   28.6286   15.1006 H     683  UNL683      0.1146
   2732 H          14.4881   27.0689   15.5002 H     683  UNL683      0.1146
   2733 N          13.7506   28.1890   18.3071 N.3   684  UNL684     -0.3437
   2734 H          13.3089   28.4796   19.1782 H     684  UNL684      0.1146
   2735 H          14.4762   28.8786   18.1164 H     684  UNL684      0.1146
   2736 H          14.2381   27.3189   18.5160 H     684  UNL684      0.1146
   2737 N          13.5195   28.0294   21.0623 N.3   685  UNL685     -0.3437
   2738 H          12.5632   28.3523   20.9224 H     685  UNL685      0.1146
   2739 H          13.6207   27.8771   22.0648 H     685  UNL685      0.1146
   2740 H          13.5706   27.1074   20.6316 H     685  UNL685      0.1146
   2741 N          13.1549   30.7588    2.2516 N.3   686  UNL686     -0.3437
   2742 H          13.3383   31.0494    3.2109 H     686  UNL686      0.1146
   2743 H          13.6123   31.4484    1.6569 H     686  UNL686      0.1146
   2744 H          13.6684   29.8887    2.1186 H     686  UNL686      0.1146
   2745 N          13.6462   29.5484    4.9313 N.3   687  UNL687     -0.3437
   2746 H          14.0155   30.4976    4.9008 H     687  UNL687      0.1146
   2747 H          14.3144   29.0043    5.4751 H     687  UNL687      0.1146
   2748 H          12.7979   29.5949    5.4940 H     687  UNL687      0.1146
   2749 N          13.3524   30.4352    7.4884 N.3   688  UNL688     -0.3437
   2750 H          13.9312   30.8295    8.2286 H     688  UNL688      0.1146
   2751 H          12.7889   29.7094    7.9289 H     688  UNL688      0.1146
   2752 H          12.7014   31.1712    7.2187 H     688  UNL688      0.1146
   2753 N          13.4811   30.6367   10.1868 N.3   689  UNL689     -0.3437
   2754 H          14.2651   30.1224    9.7877 H     689  UNL689      0.1146
   2755 H          12.7440   29.9501   10.3408 H     689  UNL689      0.1146
   2756 H          13.7838   30.9361   11.1126 H     689  UNL689      0.1146
   2757 N          13.5006   30.4191   13.3467 N.3   690  UNL690     -0.3437
   2758 H          13.0589   30.2066   12.4533 H     690  UNL690      0.1146
   2759 H          14.2262   29.7153   13.4757 H     690  UNL690      0.1146
   2760 H          13.9881   31.3042   13.2155 H     690  UNL690      0.1146
   2761 N          13.7142   30.2809   15.7335 N.3   691  UNL691     -0.3437
   2762 H          14.1597   31.0500   15.2351 H     691  UNL691      0.1146
   2763 H          13.6409   30.5806   16.7047 H     691  UNL691      0.1146
   2764 H          12.7592   30.2337   15.3813 H     691  UNL691      0.1146
   2765 N          13.4109   31.0664   18.9467 N.3   692  UNL692     -0.3437
   2766 H          12.9507   31.8078   18.4204 H     692  UNL692      0.1146
   2767 H          13.0250   30.1913   18.5951 H     692  UNL692      0.1146
   2768 H          14.3873   31.0798   18.6556 H     692  UNL692      0.1146
   2769 N          13.6669   30.5258   21.8167 N.3   693  UNL693     -0.3437
   2770 H          13.8046   29.9323   22.6334 H     693  UNL693      0.1146
   2771 H          13.9460   31.4638   22.1008 H     693  UNL693      0.1146
   2772 H          14.3566   30.2235   21.1302 H     693  UNL693      0.1146
   2773 N          13.4146   34.3748   -0.2130 N.3   694  UNL694     -0.3437
   2774 H          12.6495   33.7253   -0.0367 H     694  UNL694      0.1146
   2775 H          13.4407   35.0025    0.5893 H     694  UNL694      0.1146
   2776 H          14.2692   33.8218   -0.1648 H     694  UNL694      0.1146
   2777 N          13.2832   34.0544    2.4003 N.3   695  UNL695     -0.3437
   2778 H          12.5199   34.3833    2.9898 H     695  UNL695      0.1146
   2779 H          14.1359   34.4398    2.8038 H     695  UNL695      0.1146
   2780 H          13.3350   33.0469    2.5441 H     695  UNL695      0.1146
   2781 N          13.7135   33.2781    5.1336 N.3   696  UNL696     -0.3437
   2782 H          14.3322   32.8333    5.8103 H     696  UNL696      0.1146
   2783 H          13.2052   32.5214    4.6781 H     696  UNL696      0.1146
   2784 H          13.0230   33.7916    5.6794 H     696  UNL696      0.1146
   2785 N          13.7846   34.0312    7.9320 N.3   697  UNL697     -0.3437
   2786 H          13.9313   34.6774    8.7062 H     697  UNL697      0.1146
   2787 H          14.1739   34.4871    7.1080 H     697  UNL697      0.1146
   2788 H          14.3842   33.2287    8.1185 H     697  UNL697      0.1146
   2789 N          13.3125   33.0200   10.4868 N.3   698  UNL698     -0.3437
   2790 H          13.4301   32.6885   11.4432 H     698  UNL698      0.1146
   2791 H          13.4078   34.0338   10.5272 H     698  UNL698      0.1146
   2792 H          14.1236   32.6821    9.9707 H     698  UNL698      0.1146
   2793 N          13.6953   33.9075   12.9442 N.3   699  UNL699     -0.3437
   2794 H          13.2261   34.6540   12.4334 H     699  UNL699      0.1146
   2795 H          14.3640   34.3666   13.5611 H     699  UNL699      0.1146
   2796 H          12.9886   33.4963   13.5524 H     699  UNL699      0.1146
   2797 N          13.4246   33.2994   15.5117 N.3   700  UNL700     -0.3437
   2798 H          13.4228   32.5077   16.1532 H     700  UNL700      0.1146
   2799 H          13.0226   34.0804   16.0283 H     700  UNL700      0.1146
   2800 H          14.4040   33.5368   15.3612 H     700  UNL700      0.1146
   2801 N          13.5901   34.0507   18.4871 N.3   701  UNL701     -0.3437
   2802 H          14.1014   33.1789   18.6173 H     701  UNL701      0.1146
   2803 H          12.6880   33.7908   18.0907 H     701  UNL701      0.1146
   2804 H          13.3945   34.4040   19.4226 H     701  UNL701      0.1146
   2805 N          13.0012   33.8097   22.2649 N.3   702  UNL702     -0.3437
   2806 H          13.2923   33.9610   21.3002 H     702  UNL702      0.1146
   2807 H          12.6229   32.8641   22.2992 H     702  UNL702      0.1146
   2808 H          13.8576   33.7896   22.8168 H     702  UNL702      0.1146
   2809 N          13.5728   37.2733    2.7076 N.3   703  UNL703     -0.3437
   2810 H          13.7093   37.5639    1.7405 H     703  UNL703      0.1146
   2811 H          12.9478   37.9629    3.1225 H     703  UNL703      0.1146
   2812 H          13.0440   36.4032    2.6674 H     703  UNL703      0.1146
   2813 N          13.8161   36.2738    5.0720 N.3   704  UNL704     -0.3437
   2814 H          13.9980   35.7172    5.9059 H     704  UNL704      0.1146
   2815 H          13.2598   35.6828    4.4558 H     704  UNL704      0.1146
   2816 H          13.2000   37.0297    5.3676 H     704  UNL704      0.1146
   2817 N          14.1783   37.9027    7.7773 N.3   705  UNL705     -0.3437
   2818 H          13.3723   37.8529    8.3987 H     705  UNL705      0.1146
   2819 H          14.9971   37.9476    8.3822 H     705  UNL705      0.1146
   2820 H          14.2262   37.0003    7.3064 H     705  UNL705      0.1146
   2821 N          14.0922   36.4659   10.2410 N.3   706  UNL706     -0.3437
   2822 H          13.1595   36.0586   10.2927 H     706  UNL706      0.1146
   2823 H          13.9608   37.4753   10.2875 H     706  UNL706      0.1146
   2824 H          14.5615   36.2036   11.1066 H     706  UNL706      0.1146
   2825 N          13.7284   37.3673   13.1651 N.3   707  UNL707     -0.3437
   2826 H          13.4114   37.5759   12.2194 H     707  UNL707      0.1146
   2827 H          13.1072   37.8802   13.7892 H     707  UNL707      0.1146
   2828 H          13.5270   36.3801   13.3175 H     707  UNL707      0.1146
   2829 N          13.7506   37.1431   15.6046 N.3   708  UNL708     -0.3437
   2830 H          13.3089   37.9058   16.1159 H     708  UNL708      0.1146
   2831 H          14.4762   37.5720   15.0319 H     708  UNL708      0.1146
   2832 H          14.2381   36.5825   16.3021 H     708  UNL708      0.1146
   2833 N          13.6997   36.9282   18.7362 N.3   709  UNL709     -0.3437
   2834 H          13.8256   37.8062   18.2346 H     709  UNL709      0.1146
   2835 H          13.0942   37.1412   19.5277 H     709  UNL709      0.1146
   2836 H          13.1545   36.3279   18.1192 H     709  UNL709      0.1146
   2837 N          14.5398   36.7395   22.3564 N.3   710  UNL710     -0.3437
   2838 H          14.5090   37.7230   22.0914 H     710  UNL710      0.1146
   2839 H          13.6240   36.5255   22.7486 H     710  UNL710      0.1146
   2840 H          14.6013   36.2155   21.4846 H     710  UNL710      0.1146
   2841 N          16.8718   -0.1278   -0.3162 N.3   711  UNL711     -0.3437
   2842 H          16.0782   -0.7129   -0.5734 H     711  UNL711      0.1146
   2843 H          16.4948    0.6145    0.2714 H     711  UNL711      0.1146
   2844 H          17.4560   -0.6987    0.2929 H     711  UNL711      0.1146
   2845 N          16.3582   -0.8427    2.7761 N.3   712  UNL712     -0.3437
   2846 H          15.5593   -1.3984    3.0782 H     712  UNL712      0.1146
   2847 H          16.2921   -0.7846    1.7609 H     712  UNL712      0.1146
   2848 H          16.1913    0.1009    3.1228 H     712  UNL712      0.1146
   2849 N          16.6573   -0.4721    5.2586 N.3   713  UNL713     -0.3437
   2850 H          16.2156    0.1487    5.9353 H     713  UNL713      0.1146
   2851 H          17.3829    0.0797    4.8031 H     713  UNL713      0.1146
   2852 H          17.1448   -1.1812    5.8044 H     713  UNL713      0.1146
   2853 N          16.2841   -0.6616    8.1807 N.3   714  UNL714     -0.3437
   2854 H          15.8937   -1.5334    8.5356 H     714  UNL714      0.1146
   2855 H          17.1119   -0.9215    7.6463 H     714  UNL714      0.1146
   2856 H          15.6111   -0.3083    7.5020 H     714  UNL714      0.1146
   2857 N          16.2364   -0.4336   10.4401 N.3   715  UNL715     -0.3437
   2858 H          16.8854    0.2227   10.8719 H     715  UNL715      0.1146
   2859 H          15.7042   -0.8465   11.2048 H     715  UNL715      0.1146
   2860 H          15.5747    0.1326    9.9111 H     715  UNL715      0.1146
   2861 N          16.6573   -0.2866   13.4838 N.3   716  UNL716     -0.3437
   2862 H          16.2156   -1.1584   13.1953 H     716  UNL716      0.1146
   2863 H          17.3829   -0.5465   14.1504 H     716  UNL716      0.1146
   2864 H          17.1448    0.0667   12.6617 H     716  UNL716      0.1146
   2865 N          16.5162   -0.2439   16.8228 N.3   717  UNL717     -0.3437
   2866 H          16.2303   -0.2912   15.8458 H     717  UNL717      0.1146
   2867 H          15.6561   -0.2693   17.3687 H     717  UNL717      0.1146
   2868 H          16.9982   -1.1204   17.0172 H     717  UNL717      0.1146
   2869 N          16.4536    0.3048   19.6404 N.3   718  UNL718     -0.3437
   2870 H          16.6374   -0.6551   19.3519 H     718  UNL718      0.1146
   2871 H          17.1866    0.5430   20.3070 H     718  UNL718      0.1146
   2872 H          16.6231    0.8825   18.8183 H     718  UNL718      0.1146
   2873 N          16.2566   -0.7095   22.2153 N.3   719  UNL719     -0.3437
   2874 H          17.1611   -0.7239   22.6844 H     719  UNL719      0.1146
   2875 H          16.1068    0.2553   21.9237 H     719  UNL719      0.1146
   2876 H          16.3763   -1.2467   21.3577 H     719  UNL719      0.1146
   2877 N          16.5323    2.4360    1.7122 N.3   720  UNL720     -0.3437
   2878 H          16.0906    2.7266    2.5833 H     720  UNL720      0.1146
   2879 H          17.2579    3.1256    1.5215 H     720  UNL720      0.1146
   2880 H          17.0198    1.5659    1.9211 H     720  UNL720      0.1146
   2881 N          16.3613    2.5746    5.3739 N.3   721  UNL721     -0.3437
   2882 H          16.9310    3.4003    5.5532 H     721  UNL721      0.1146
   2883 H          16.1271    2.6048    4.3826 H     721  UNL721      0.1146
   2884 H          16.9814    1.7746    5.4917 H     721  UNL721      0.1146
   2885 N          16.9073    2.4082    7.9521 N.3   722  UNL722     -0.3437
   2886 H          16.4656    1.5364    7.6636 H     722  UNL722      0.1146
   2887 H          17.6329    2.1482    8.6187 H     722  UNL722      0.1146
   2888 H          17.3948    2.7615    7.1300 H     722  UNL722      0.1146
   2889 N          16.0323    2.5301   10.6982 N.3   723  UNL723     -0.3437
   2890 H          15.5906    2.5899    9.7819 H     723  UNL723      0.1146
   2891 H          16.7579    1.8196   10.6145 H     723  UNL723      0.1146
   2892 H          16.5198    3.4147   10.8333 H     723  UNL723      0.1146
   2893 N          16.0592    2.0648   13.2692 N.3   724  UNL724     -0.3437
   2894 H          15.7424    2.1734   14.2315 H     724  UNL724      0.1146
   2895 H          15.5607    2.7699   12.7281 H     724  UNL724      0.1146
   2896 H          17.0385    2.3462   13.2624 H     724  UNL724      0.1146
   2897 N          16.6573    2.6582   16.1246 N.3   725  UNL725     -0.3437
   2898 H          16.2156    1.7864   15.8361 H     725  UNL725      0.1146
   2899 H          17.3829    2.3982   16.7912 H     725  UNL725      0.1146
   2900 H          17.1448    3.0115   15.3025 H     725  UNL725      0.1146
   2901 N          16.6917    3.1105   19.2654 N.3   726  UNL726     -0.3437
   2902 H          15.8090    2.6910   18.9769 H     726  UNL726      0.1146
   2903 H          17.1067    2.4610   19.9320 H     726  UNL726      0.1146
   2904 H          17.2935    3.0918   18.4433 H     726  UNL726      0.1146
   2905 N          16.0709    2.6934   22.0667 N.3   727  UNL727     -0.3437
   2906 H          15.6382    2.2645   22.8834 H     727  UNL727      0.1146
   2907 H          17.0157    2.9487   22.3508 H     727  UNL727      0.1146
   2908 H          16.1760    1.9477   21.3802 H     727  UNL727      0.1146
   2909 N          16.6573    4.9779    0.1547 N.3   728  UNL728     -0.3437
   2910 H          16.2156    4.1061   -0.1338 H     728  UNL728      0.1146
   2911 H          17.3829    4.7180    0.8213 H     728  UNL728      0.1146
   2912 H          17.1448    5.3313   -0.6674 H     728  UNL728      0.1146
   2913 N          15.6115    5.0853    2.3403 N.3   729  UNL729     -0.3437
   2914 H          14.7629    5.6489    2.3187 H     729  UNL729      0.1146
   2915 H          16.3876    5.7452    2.3159 H     729  UNL729      0.1146
   2916 H          15.6387    4.6539    3.2631 H     729  UNL729      0.1146
   2917 N          16.0279    5.5480    5.4460 N.3   730  UNL730     -0.3437
   2918 H          15.8425    4.8272    6.1421 H     730  UNL730      0.1146
   2919 H          16.8097    5.2060    4.8890 H     730  UNL730      0.1146
   2920 H          15.2207    5.5521    4.8241 H     730  UNL730      0.1146
   2921 N          16.6573    5.2279    8.0771 N.3   731  UNL731     -0.3437
   2922 H          16.2156    4.3561    7.7886 H     731  UNL731      0.1146
   2923 H          17.3829    4.9680    8.7437 H     731  UNL731      0.1146
   2924 H          17.1448    5.5813    7.2550 H     731  UNL731      0.1146
   2925 N          16.1573    5.7911   10.5809 N.3   732  UNL732     -0.3437
   2926 H          15.7156    5.5786    9.6875 H     732  UNL732      0.1146
   2927 H          16.8829    5.0874   10.7099 H     732  UNL732      0.1146
   2928 H          16.6448    6.6763   10.4497 H     732  UNL732      0.1146
   2929 N          16.2823    4.6936   13.0617 N.3   733  UNL733     -0.3437
   2930 H          15.8406    5.5048   12.6312 H     733  UNL733      0.1146
   2931 H          17.0079    4.3916   12.4130 H     733  UNL733      0.1146
   2932 H          16.7698    5.0434   13.8853 H     733  UNL733      0.1146
   2933 N          15.9838    5.3856   15.9001 N.3   734  UNL734     -0.3437
   2934 H          16.7278    5.1360   16.5500 H     734  UNL734      0.1146
   2935 H          16.3892    6.0631   15.2558 H     734  UNL734      0.1146
   2936 H          15.8000    4.5487   15.3486 H     734  UNL734      0.1146
   2937 N          16.0885    5.5256   18.8005 N.3   735  UNL735     -0.3437
   2938 H          15.9807    6.2223   18.0648 H     735  UNL735      0.1146
   2939 H          15.3597    4.8319   18.6394 H     735  UNL735      0.1146
   2940 H          16.9719    5.0535   18.6130 H     735  UNL735      0.1146
   2941 N          16.6488    5.7438   22.1202 N.3   736  UNL736     -0.3437
   2942 H          17.3477    6.0227   22.8073 H     736  UNL736      0.1146
   2943 H          17.1667    5.4863   21.2813 H     736  UNL736      0.1146
   2944 H          16.2376    4.8805   22.4724 H     736  UNL736      0.1146
   2945 N          16.5624    7.4831   -0.3159 N.3   737  UNL737     -0.3437
   2946 H          15.5653    7.4832   -0.5260 H     737  UNL737      0.1146
   2947 H          17.0374    7.6166   -1.2075 H     737  UNL737      0.1146
   2948 H          16.7357    8.3297    0.2241 H     737  UNL737      0.1146
   2949 N          15.9110    8.0301    2.4208 N.3   738  UNL738     -0.3437
   2950 H          16.3606    8.5937    3.1409 H     738  UNL738      0.1146
   2951 H          15.4631    8.6900    1.7866 H     738  UNL738      0.1146
   2952 H          16.6661    7.5986    1.8897 H     738  UNL738      0.1146
   2953 N          16.8071    7.7306    5.4973 N.3   739  UNL739     -0.3437
   2954 H          15.8622    7.5753    5.8459 H     739  UNL739      0.1146
   2955 H          16.8189    7.3660    4.5458 H     739  UNL739      0.1146
   2956 H          16.9126    8.7406    5.4123 H     739  UNL739      0.1146
   2957 N          16.4091    7.9227    8.1807 N.3   740  UNL740     -0.3437
   2958 H          16.0187    7.0509    8.5356 H     740  UNL740      0.1146
   2959 H          17.2369    7.6628    7.6463 H     740  UNL740      0.1146
   2960 H          15.7361    8.2761    7.5020 H     740  UNL740      0.1146
   2961 N          16.0961    8.7500   10.4911 N.3   741  UNL741     -0.3437
   2962 H          17.0246    8.3305   10.4788 H     741  UNL741      0.1146
   2963 H          15.4879    8.1006    9.9944 H     741  UNL741      0.1146
   2964 H          15.7922    8.7314   11.4636 H     741  UNL741      0.1146
   2965 N          16.0977    7.7359   13.2192 N.3   742  UNL742     -0.3437
   2966 H          16.9067    7.5234   12.6371 H     742  UNL742      0.1146
   2967 H          16.0893    7.0321   13.9562 H     742  UNL742      0.1146
   2968 H          16.3070    8.6210   13.6786 H     742  UNL742      0.1146
   2969 N          17.4981    7.8496   15.9238 N.3   743  UNL743     -0.3437
   2970 H          18.0434    8.5599   15.4375 H     743  UNL743      0.1146
   2971 H          17.2176    8.2683   16.8094 H     743  UNL743      0.1146
   2972 H          16.6416    7.7346   15.3838 H     743  UNL743      0.1146
   2973 N          16.6039    8.4800   19.5591 N.3   744  UNL744     -0.3437
   2974 H          17.1850    7.7536   19.9750 H     744  UNL744      0.1146
   2975 H          16.9420    8.5982   18.6051 H     744  UNL744      0.1146
   2976 H          15.6699    8.0808   19.4786 H     744  UNL744      0.1146
   2977 N          15.9088    7.9406   22.3353 N.3   745  UNL745     -0.3437
   2978 H          15.3848    7.3825   21.6628 H     745  UNL745      0.1146
   2979 H          16.3936    8.6532   21.7916 H     745  UNL745      0.1146
   2980 H          15.2135    8.4363   22.8914 H     745  UNL745      0.1146
   2981 N          16.3473   10.8435    1.6868 N.3   746  UNL746     -0.3437
   2982 H          15.4828   10.4380    2.0427 H     746  UNL746      0.1146
   2983 H          17.0963   10.4522    2.2563 H     746  UNL746      0.1146
   2984 H          16.4745   10.4578    0.7522 H     746  UNL746      0.1146
   2985 N          16.4581   10.7365    4.4979 N.3   747  UNL747     -0.3437
   2986 H          17.1605   11.3850    4.8504 H     747  UNL747      0.1146
   2987 H          16.0831   10.2570    5.3151 H     747  UNL747      0.1146
   2988 H          15.6990   11.3131    4.1378 H     747  UNL747      0.1146
   2989 N          16.6122   10.9961    7.6699 N.3   748  UNL748     -0.3437
   2990 H          15.8462   11.4012    8.2060 H     748  UNL748      0.1146
   2991 H          17.2357   10.5663    8.3518 H     748  UNL748      0.1146
   2992 H          16.2067   10.2280    7.1369 H     748  UNL748      0.1146
   2993 N          16.3709   10.7925   10.0768 N.3   749  UNL749     -0.3437
   2994 H          16.8164   11.5616    9.5784 H     749  UNL749      0.1146
   2995 H          16.2976   11.0922   11.0480 H     749  UNL749      0.1146
   2996 H          15.4159   10.7453    9.7246 H     749  UNL749      0.1146
   2997 N          16.5314   11.1886   13.0130 N.3   750  UNL750     -0.3437
   2998 H          15.7407   10.5459   13.0136 H     750  UNL750      0.1146
   2999 H          16.8581   11.2329   13.9773 H     750  UNL750      0.1146
   3000 H          17.2705   10.7242   12.4872 H     750  UNL750      0.1146
   3001 N          16.5323   10.5783   16.0580 N.3   751  UNL751     -0.3437
   3002 H          16.0906   11.4248   15.7020 H     751  UNL751      0.1146
   3003 H          17.2579   10.3358   15.3848 H     751  UNL751      0.1146
   3004 H          17.0198   10.8527   16.9097 H     751  UNL751      0.1146
   3005 N          15.7139   10.8663   19.8875 N.3   752  UNL752     -0.3437
   3006 H          15.5561   11.8605   20.0458 H     752  UNL752      0.1146
   3007 H          16.3166   10.5531   20.6471 H     752  UNL752      0.1146
   3008 H          14.8142   10.4118   20.0373 H     752  UNL752      0.1146
   3009 N          16.6136   10.9124   22.8404 N.3   753  UNL753     -0.3437
   3010 H          17.3106   10.3188   22.3929 H     753  UNL753      0.1146
   3011 H          16.7652   11.8503   22.4721 H     753  UNL753      0.1146
   3012 H          15.7114   10.6100   22.4758 H     753  UNL753      0.1146
   3013 N          16.8586   12.9969    0.0297 N.3   754  UNL754     -0.3437
   3014 H          16.6930   12.0337   -0.2588 H     754  UNL754      0.1146
   3015 H          17.6286   12.9620    0.6963 H     754  UNL754      0.1146
   3016 H          17.2206   13.4781   -0.7924 H     754  UNL754      0.1146
   3017 N          16.1975   13.4627    2.3594 N.3   755  UNL755     -0.3437
   3018 H          16.5646   14.3365    1.9849 H     755  UNL755      0.1146
   3019 H          17.0016   12.9530    2.7227 H     755  UNL755      0.1146
   3020 H          15.6370   13.7185    3.1710 H     755  UNL755      0.1146
   3021 N          16.6573   13.8123    5.5613 N.3   756  UNL756     -0.3437
   3022 H          16.2156   12.9405    5.2728 H     756  UNL756      0.1146
   3023 H          17.3829   13.5523    6.2279 H     756  UNL756      0.1146
   3024 H          17.1448   14.1656    4.7392 H     756  UNL756      0.1146
   3025 N          15.7383   13.8550    8.0771 N.3   757  UNL757     -0.3437
   3026 H          16.4709   13.2081    7.7886 H     757  UNL757      0.1146
   3027 H          16.1725   14.4918    8.7437 H     757  UNL757      0.1146
   3028 H          15.5190   14.4157    7.2550 H     757  UNL757      0.1146
   3029 N          15.8265   13.8274   10.9389 N.3   758  UNL758     -0.3437
   3030 H          16.6730   13.9197   10.3791 H     758  UNL758      0.1146
   3031 H          15.0506   13.8360   10.2783 H     758  UNL758      0.1146
   3032 H          15.8506   12.8875   11.3316 H     758  UNL758      0.1146
   3033 N          16.8167   14.0146   13.3588 N.3   759  UNL759     -0.3437
   3034 H          15.9340   13.5951   13.0703 H     759  UNL759      0.1146
   3035 H          17.2317   13.3651   14.0254 H     759  UNL759      0.1146
   3036 H          17.4185   13.9959   12.5367 H     759  UNL759      0.1146
   3037 N          16.1738   14.0440   15.6631 N.3   760  UNL760     -0.3437
   3038 H          16.9843   13.7076   16.1811 H     760  UNL760      0.1146
   3039 H          15.6668   13.2124   15.3638 H     760  UNL760      0.1146
   3040 H          15.5759   14.5066   16.3464 H     760  UNL760      0.1146
   3041 N          15.8960   13.8649   18.3880 N.3   761  UNL761     -0.3437
   3042 H          15.3701   13.0485   18.0793 H     761  UNL761      0.1146
   3043 H          15.7555   13.9250   19.3955 H     761  UNL761      0.1146
   3044 H          16.8792   13.6324   18.2550 H     761  UNL761      0.1146
   3045 N          15.8974   14.3317   22.1484 N.3   762  UNL762     -0.3437
   3046 H          16.3270   14.1028   21.2532 H     762  UNL762      0.1146
   3047 H          15.5123   13.4588   22.5064 H     762  UNL762      0.1146
   3048 H          16.6641   14.5774   22.7731 H     762  UNL762      0.1146
   3049 N          16.4445   15.9112    0.3688 N.3   763  UNL763     -0.3437
   3050 H          15.6386   15.2877    0.3775 H     763  UNL763      0.1146
   3051 H          16.5662   16.2265    1.3302 H     763  UNL763      0.1146
   3052 H          17.2514   15.3244    0.1615 H     763  UNL763      0.1146
   3053 N          16.1461   16.4887    3.6579 N.3   764  UNL764     -0.3437
   3054 H          15.9010   16.8939    2.7556 H     764  UNL764      0.1146
   3055 H          16.2949   15.4950    3.4885 H     764  UNL764      0.1146
   3056 H          17.0588   16.8722    3.8993 H     764  UNL764      0.1146
   3057 N          16.7930   16.5402    6.3141 N.3   765  UNL765     -0.3437
   3058 H          17.0816   16.0154    5.4897 H     765  UNL765      0.1146
   3059 H          16.6596   17.5013    6.0028 H     765  UNL765      0.1146
   3060 H          15.8666   16.1929    6.5580 H     765  UNL765      0.1146
   3061 N          16.5805   17.3617    8.9699 N.3   766  UNL766     -0.3437
   3062 H          17.4070   16.7659    8.9852 H     766  UNL766      0.1146
   3063 H          16.6298   17.8881    8.0988 H     766  UNL766      0.1146
   3064 H          15.7835   16.7341    8.8740 H     766  UNL766      0.1146
   3065 N          16.4655   16.3186   11.2257 N.3   767  UNL767     -0.3437
   3066 H          16.3659   17.2475   11.6327 H     767  UNL767      0.1146
   3067 H          17.0325   15.7837   11.8821 H     767  UNL767      0.1146
   3068 H          15.5369   15.8999   11.2507 H     767  UNL767      0.1146
   3069 N          16.1740   16.6804   14.0576 N.3   768  UNL768     -0.3437
   3070 H          17.1498   16.6418   13.7666 H     768  UNL768      0.1146
   3071 H          15.9145   15.7247   14.2978 H     768  UNL768      0.1146
   3072 H          16.1624   17.2028   14.9325 H     768  UNL768      0.1146
   3073 N          16.9757   16.3002   17.0273 N.3   769  UNL769     -0.3437
   3074 H          15.9618   16.2933   17.1287 H     769  UNL769      0.1146
   3075 H          17.3047   15.4258   17.4345 H     769  UNL769      0.1146
   3076 H          17.1585   16.2305   16.0273 H     769  UNL769      0.1146
   3077 N          16.9261   16.5859   20.4627 N.3   770  UNL770     -0.3437
   3078 H          16.0389   16.5573   20.9632 H     770  UNL770      0.1146
   3079 H          17.6120   16.1567   21.0821 H     770  UNL770      0.1146
   3080 H          16.8238   15.9499   19.6732 H     770  UNL770      0.1146
   3081 N          14.3203   19.2214    2.3421 N.3   771  UNL771     -0.3437
   3082 H          14.4418   18.5836    1.5567 H     771  UNL771      0.1146
   3083 H          14.6752   18.7294    3.1609 H     771  UNL771      0.1146
   3084 H          14.9635   19.9945    2.1783 H     771  UNL771      0.1146
   3085 N          16.4103   19.2297    4.6134 N.3   772  UNL772     -0.3437
   3086 H          17.2204   19.5203    4.0679 H     772  UNL772      0.1146
   3087 H          15.6837   19.9193    4.4265 H     772  UNL772      0.1146
   3088 H          16.0863   18.3596    4.1935 H     772  UNL772      0.1146
   3089 N          16.7823   19.7790    7.0470 N.3   773  UNL773     -0.3437
   3090 H          16.3406   19.3260    7.8457 H     773  UNL773      0.1146
   3091 H          17.5079   20.3821    7.4319 H     773  UNL773      0.1146
   3092 H          17.2698   19.0417    6.5400 H     773  UNL773      0.1146
   3093 N          16.2481   19.1105   10.3715 N.3   774  UNL774     -0.3437
   3094 H          15.5926   19.1084   11.1516 H     774  UNL774      0.1146
   3095 H          16.4433   20.0904   10.1712 H     774  UNL774      0.1146
   3096 H          17.1167   18.7195   10.7335 H     774  UNL774      0.1146
   3097 N          16.6881   19.4797   12.8419 N.3   775  UNL775     -0.3437
   3098 H          15.7148   19.7703   12.9237 H     775  UNL775      0.1146
   3099 H          17.2315   20.1693   13.3591 H     775  UNL775      0.1146
   3100 H          16.7664   18.6096   13.3665 H     775  UNL775      0.1146
   3101 N          16.5548   19.3881   15.8796 N.3   776  UNL776     -0.3437
   3102 H          16.9825   19.9973   15.1837 H     776  UNL776      0.1146
   3103 H          16.9357   18.4582   15.7109 H     776  UNL776      0.1146
   3104 H          16.9278   19.6852   16.7802 H     776  UNL776      0.1146
   3105 N          16.2721   18.4522   18.6623 N.3   777  UNL777     -0.3437
   3106 H          16.2288   19.3960   18.2808 H     777  UNL777      0.1146
   3107 H          17.2250   18.1282   18.5029 H     777  UNL777      0.1146
   3108 H          16.1748   18.5525   19.6717 H     777  UNL777      0.1146
   3109 N          15.8668   19.2472   22.5920 N.3   778  UNL778     -0.3437
   3110 H          15.7074   19.4746   21.6116 H     778  UNL778      0.1146
   3111 H          15.1095   18.6210   22.8619 H     778  UNL778      0.1146
   3112 H          16.7170   18.6860   22.6155 H     778  UNL778      0.1146
   3113 N          15.7310   21.9715    0.1914 N.3   779  UNL779     -0.3437
   3114 H          15.3835   21.3261    0.8992 H     779  UNL779      0.1146
   3115 H          16.7450   21.9793    0.2919 H     779  UNL779      0.1146
   3116 H          15.5413   21.5311   -0.7078 H     779  UNL779      0.1146
   3117 N          16.1573   22.7995    2.3372 N.3   780  UNL780     -0.3437
   3118 H          15.7156   23.0901    3.2083 H     780  UNL780      0.1146
   3119 H          16.8829   23.4891    2.1465 H     780  UNL780      0.1146
   3120 H          16.6448   21.9294    2.5461 H     780  UNL780      0.1146
   3121 N          16.7055   21.4925    5.0501 N.3   781  UNL781     -0.3437
   3122 H          16.1859   21.8267    5.8605 H     781  UNL781      0.1146
   3123 H          16.9045   22.3166    4.4848 H     781  UNL781      0.1146
   3124 H          17.6050   21.1721    5.4058 H     781  UNL781      0.1146
   3125 N          16.6573   22.3549    7.6868 N.3   782  UNL782     -0.3437
   3126 H          16.2156   23.2711    7.6248 H     782  UNL782      0.1146
   3127 H          17.3829   22.3439    6.9714 H     782  UNL782      0.1146
   3128 H          17.1448   22.3381    8.5815 H     782  UNL782      0.1146
   3129 N          16.1573   22.0711   10.8309 N.3   783  UNL783     -0.3437
   3130 H          15.7156   21.9134    9.9263 H     783  UNL783      0.1146
   3131 H          16.8829   21.3608   10.9169 H     783  UNL783      0.1146
   3132 H          16.6448   22.9626   10.7538 H     783  UNL783      0.1146
   3133 N          16.7879   22.5495   13.0211 N.3   784  UNL784     -0.3437
   3134 H          15.8562   22.8401   12.7281 H     784  UNL784      0.1146
   3135 H          17.0949   23.2391   13.7057 H     784  UNL784      0.1146
   3136 H          16.6617   21.6794   13.5363 H     784  UNL784      0.1146
   3137 N          16.3467   22.1602   16.0545 N.3   785  UNL785     -0.3437
   3138 H          16.7199   21.3903   16.6079 H     785  UNL785      0.1146
   3139 H          17.1288   22.5184   15.5081 H     785  UNL785      0.1146
   3140 H          15.7053   21.7391   15.3840 H     785  UNL785      0.1146
   3141 N          16.2823   22.4245   18.5571 N.3   786  UNL786     -0.3437
   3142 H          15.8406   22.7151   19.4282 H     786  UNL786      0.1146
   3143 H          17.0079   23.1141   18.3664 H     786  UNL786      0.1146
   3144 H          16.7698   21.5544   18.7660 H     786  UNL786      0.1146
   3145 N          16.7453   21.8404   21.5686 N.3   787  UNL787     -0.3437
   3146 H          15.7467   21.8060   21.3688 H     787  UNL787      0.1146
   3147 H          17.0826   22.7133   21.1651 H     787  UNL787      0.1146
   3148 H          16.8262   21.9483   22.5786 H     787  UNL787      0.1146
   3149 N          15.9593   24.5126   -0.1789 N.3   788  UNL788     -0.3437
   3150 H          15.5357   24.3214    0.7279 H     788  UNL788      0.1146
   3151 H          15.9719   25.5271   -0.2747 H     788  UNL788      0.1146
   3152 H          16.9339   24.2260   -0.0996 H     788  UNL788      0.1146
   3153 N          15.7497   26.1613    2.6902 N.3   789  UNL789     -0.3437
   3154 H          16.5065   25.9435    3.3369 H     789  UNL789      0.1146
   3155 H          16.1700   26.7080    1.9399 H     789  UNL789      0.1146
   3156 H          15.4745   25.2742    2.2710 H     789  UNL789      0.1146
   3157 N          16.4554   24.2764    5.2115 N.3   790  UNL790     -0.3437
   3158 H          17.0872   23.8932    5.9131 H     790  UNL790      0.1146
   3159 H          16.4441   25.2839    5.3639 H     790  UNL790      0.1146
   3160 H          16.9139   24.1336    4.3127 H     790  UNL790      0.1146
   3161 N          16.7823   25.5309    7.5244 N.3   791  UNL791     -0.3437
   3162 H          16.3406   26.1517    8.2011 H     791  UNL791      0.1146
   3163 H          17.5079   26.0827    7.0689 H     791  UNL791      0.1146
   3164 H          17.2698   24.8218    8.0702 H     791  UNL791      0.1146
   3165 N          16.2823   25.2164   10.5930 N.3   792  UNL792     -0.3437
   3166 H          15.8406   24.3446   10.3045 H     792  UNL792      0.1146
   3167 H          17.0079   24.9564   11.2596 H     792  UNL792      0.1146
   3168 H          16.7698   25.5697    9.7709 H     792  UNL792      0.1146
   3169 N          16.0488   24.8829   13.2338 N.3   793  UNL793     -0.3437
   3170 H          16.8593   25.4290   12.9453 H     793  UNL793      0.1146
   3171 H          15.5418   25.4634   13.9004 H     793  UNL793      0.1146
   3172 H          15.4509   24.8118   12.4117 H     793  UNL793      0.1146
   3173 N          17.0537   24.6592   16.0583 N.3   794  UNL794     -0.3437
   3174 H          17.1098   24.4304   15.0669 H     794  UNL794      0.1146
   3175 H          17.9223   25.1416   16.2848 H     794  UNL794      0.1146
   3176 H          16.3150   25.3558   16.1445 H     794  UNL794      0.1146
   3177 N          16.1573   25.5914   18.8904 N.3   795  UNL795     -0.3437
   3178 H          15.7156   24.7196   18.6019 H     795  UNL795      0.1146
   3179 H          16.8829   25.3314   19.5570 H     795  UNL795      0.1146
   3180 H          16.6448   25.9447   18.0683 H     795  UNL795      0.1146
   3181 N          16.7913   24.9871   22.4871 N.3   796  UNL796     -0.3437
   3182 H          17.0690   24.0825   22.8652 H     796  UNL796      0.1146
   3183 H          16.6860   24.8514   21.4827 H     796  UNL796      0.1146
   3184 H          15.8545   25.1660   22.8461 H     796  UNL796      0.1146
   3185 N          16.8944   27.7917    0.0271 N.3   797  UNL797     -0.3437
   3186 H          15.9393   27.4866    0.2088 H     797  UNL797      0.1146
   3187 H          17.0712   28.5607    0.6719 H     797  UNL797      0.1146
   3188 H          17.4960   27.0271    0.3302 H     797  UNL797      0.1146
   3189 N          16.0740   28.1867    4.2434 N.3   798  UNL798     -0.3437
   3190 H          16.3812   27.8495    3.3322 H     798  UNL798      0.1146
   3191 H          15.3848   28.9136    4.0562 H     798  UNL798      0.1146
   3192 H          15.5608   27.4164    4.6696 H     798  UNL798      0.1146
   3193 N          16.9769   28.1252    6.4899 N.3   799  UNL799     -0.3437
   3194 H          17.3930   27.9066    7.3940 H     799  UNL799      0.1146
   3195 H          17.7009   28.6038    5.9559 H     799  UNL799      0.1146
   3196 H          16.8300   27.2306    6.0247 H     799  UNL799      0.1146
   3197 N          16.5028   27.8139    9.6643 N.3   800  UNL800     -0.3437
   3198 H          16.3386   27.3041   10.5311 H     800  UNL800      0.1146
   3199 H          16.6717   28.7816    9.9352 H     800  UNL800      0.1146
   3200 H          17.3876   27.4665    9.2973 H     800  UNL800      0.1146
   3201 N          16.3747   27.9811   13.1285 N.3   801  UNL801     -0.3437
   3202 H          17.1315   27.7633   13.7752 H     801  UNL801      0.1146
   3203 H          16.7950   28.5278   12.3782 H     801  UNL801      0.1146
   3204 H          16.0995   27.0940   12.7093 H     801  UNL801      0.1146
   3205 N          16.5655   27.8308   16.3682 N.3   802  UNL802     -0.3437
   3206 H          15.6858   27.5278   16.7838 H     802  UNL802      0.1146
   3207 H          16.9738   28.4930   17.0264 H     802  UNL802      0.1146
   3208 H          17.1756   27.0146   16.3761 H     802  UNL802      0.1146
   3209 N          16.0323   28.1748   19.8218 N.3   803  UNL803     -0.3437
   3210 H          15.5906   27.4049   20.3223 H     803  UNL803      0.1146
   3211 H          16.7579   28.5329   20.4413 H     803  UNL803      0.1146
   3212 H          16.5198   27.7536   19.0323 H     803  UNL803      0.1146
   3213 N          16.1100   27.8188   22.8224 N.3   804  UNL804     -0.3437
   3214 H          15.6696   28.4725   22.1765 H     804  UNL804      0.1146
   3215 H          15.5863   26.9484   22.7418 H     804  UNL804      0.1146
   3216 H          17.0349   27.6265   22.4403 H     804  UNL804      0.1146
   3217 N          16.7823   30.8559   -0.3453 N.3   805  UNL805     -0.3437
   3218 H          16.3406   29.9841   -0.6338 H     805  UNL805      0.1146
   3219 H          17.5079   30.5960    0.3213 H     805  UNL805      0.1146
   3220 H          17.2698   31.2093   -1.1674 H     805  UNL805      0.1146
   3221 N          15.5616   30.5088    2.5016 N.3   806  UNL806     -0.3437
   3222 H          15.7450   30.7994    3.4609 H     806  UNL806      0.1146
   3223 H          16.0190   31.1984    1.9069 H     806  UNL806      0.1146
   3224 H          16.0751   29.6387    2.3686 H     806  UNL806      0.1146
   3225 N          16.7559   30.6247    5.5709 N.3   807  UNL807     -0.3437
   3226 H          15.8821   31.1486    5.5506 H     807  UNL807      0.1146
   3227 H          16.7640   30.0592    4.7232 H     807  UNL807      0.1146
   3228 H          17.4987   31.3128    5.4566 H     807  UNL807      0.1146
   3229 N          16.3283   30.2177    7.8688 N.3   808  UNL808     -0.3437
   3230 H          15.9359   29.8634    8.7399 H     808  UNL808      0.1146
   3231 H          15.8435   31.0936    7.6781 H     808  UNL808      0.1146
   3232 H          17.2931   30.4706    8.0777 H     808  UNL808      0.1146
   3233 N          16.6573   31.2582   10.7008 N.3   809  UNL809     -0.3437
   3234 H          16.2156   30.3920   11.0058 H     809  UNL809      0.1146
   3235 H          17.3829   31.4603   11.3871 H     809  UNL809      0.1146
   3236 H          17.1448   31.0348    9.8342 H     809  UNL809      0.1146
   3237 N          16.2823   30.6691   13.4717 N.3   810  UNL810     -0.3437
   3238 H          15.8406   30.4566   12.5783 H     810  UNL810      0.1146
   3239 H          17.0079   29.9653   13.6007 H     810  UNL810      0.1146
   3240 H          16.7698   31.5542   13.3405 H     810  UNL810      0.1146
   3241 N          16.2982   30.6168   15.9863 N.3   811  UNL811     -0.3437
   3242 H          16.4842   31.3787   15.3357 H     811  UNL811      0.1146
   3243 H          15.9088   29.8589   15.4273 H     811  UNL811      0.1146
   3244 H          17.2095   30.2909   16.3052 H     811  UNL811      0.1146
   3245 N          17.1719   30.6801   18.9728 N.3   812  UNL812     -0.3437
   3246 H          16.4139   31.1913   19.4226 H     812  UNL812      0.1146
   3247 H          16.7279   29.9482   18.4200 H     812  UNL812      0.1146
   3248 H          17.5870   31.3256   18.3024 H     812  UNL812      0.1146
   3249 N          16.5709   30.8912   22.0667 N.3   813  UNL813     -0.3437
   3250 H          16.1382   30.4622   22.8834 H     813  UNL813      0.1146
   3251 H          17.5157   31.1464   22.3508 H     813  UNL813      0.1146
   3252 H          16.6760   30.1455   21.3802 H     813  UNL813      0.1146
   3253 N          16.2201   33.6139   -0.9716 N.3   814  UNL814     -0.3437
   3254 H          17.2151   33.4014   -1.0268 H     814  UNL814      0.1146
   3255 H          15.8164   32.9101   -0.3551 H     814  UNL814      0.1146
   3256 H          16.1492   34.4990   -0.4718 H     814  UNL814      0.1146
   3257 N          17.0337   33.5220    2.2118 N.3   815  UNL815     -0.3437
   3258 H          16.0927   33.8979    2.1043 H     815  UNL815      0.1146
   3259 H          17.1083   32.7563    1.5434 H     815  UNL815      0.1146
   3260 H          17.6661   34.2482    1.8784 H     815  UNL815      0.1146
   3261 N          16.5191   33.9768    4.7919 N.3   816  UNL816     -0.3437
   3262 H          15.9957   34.1488    5.6492 H     816  UNL816      0.1146
   3263 H          17.3899   33.5321    5.0789 H     816  UNL816      0.1146
   3264 H          15.9962   33.2667    4.2813 H     816  UNL816      0.1146
   3265 N          16.9028   33.4211    8.3057 N.3   817  UNL817     -0.3437
   3266 H          17.1272   32.4926    8.6606 H     817  UNL817      0.1146
   3267 H          17.7166   33.7218    7.7713 H     817  UNL817      0.1146
   3268 H          16.1542   33.2890    7.6270 H     817  UNL817      0.1146
   3269 N          16.0774   34.2302   10.8309 N.3   818  UNL818     -0.3437
   3270 H          15.5980   34.3323    9.9375 H     818  UNL818      0.1146
   3271 H          16.2209   33.2296   10.9599 H     818  UNL818      0.1146
   3272 H          17.0045   34.6323   10.6997 H     818  UNL818      0.1146
   3273 N          16.6917   34.0030   13.3588 N.3   819  UNL819     -0.3437
   3274 H          15.8090   33.5835   13.0703 H     819  UNL819      0.1146
   3275 H          17.1067   33.3535   14.0254 H     819  UNL819      0.1146
   3276 H          17.2935   33.9843   12.5367 H     819  UNL819      0.1146
   3277 N          16.1842   34.4197   16.2375 N.3   820  UNL820     -0.3437
   3278 H          15.8674   34.7937   15.3441 H     820  UNL820      0.1146
   3279 H          15.6857   33.5403   16.3665 H     820  UNL820      0.1146
   3280 H          17.1635   34.1707   16.1063 H     820  UNL820      0.1146
   3281 N          16.5757   33.6777   18.8627 N.3   821  UNL821     -0.3437
   3282 H          17.0481   34.4343   18.3699 H     821  UNL821      0.1146
   3283 H          16.6007   32.8752   18.2352 H     821  UNL821      0.1146
   3284 H          17.1762   33.4372   19.6500 H     821  UNL821      0.1146
   3285 N          16.4049   33.6420   22.3411 N.3   822  UNL822     -0.3437
   3286 H          16.9094   33.0882   21.6503 H     822  UNL822      0.1146
   3287 H          15.7448   34.2133   21.8155 H     822  UNL822      0.1146
   3288 H          15.8417   32.9809   22.8742 H     822  UNL822      0.1146
   3289 N          15.7797   37.4806   -0.2112 N.3   823  UNL823     -0.3437
   3290 H          16.4471   37.9812    0.3739 H     823  UNL823      0.1146
   3291 H          16.3355   36.9519   -0.8820 H     823  UNL823      0.1146
   3292 H          15.3384   36.7898    0.3941 H     823  UNL823      0.1146
   3293 N          16.1897   36.4953    2.6318 N.3   824  UNL824     -0.3437
   3294 H          16.3506   37.4426    2.9710 H     824  UNL824      0.1146
   3295 H          16.7713   36.3917    1.8015 H     824  UNL824      0.1146
   3296 H          16.5891   35.8739    3.3337 H     824  UNL824      0.1146
   3297 N          16.6500   37.4806    5.2280 N.3   825  UNL825     -0.3437
   3298 H          16.8201   37.9812    6.0991 H     825  UNL825      0.1146
   3299 H          17.5000   36.9519    5.0373 H     825  UNL825      0.1146
   3300 H          15.9306   36.7898    5.4369 H     825  UNL825      0.1146
   3301 N          16.2249   35.9223    7.9983 N.3   826  UNL826     -0.3437
   3302 H          17.0521   35.7603    8.5709 H     826  UNL826      0.1146
   3303 H          16.3804   36.8113    7.5252 H     826  UNL826      0.1146
   3304 H          16.2433   35.2096    7.2702 H     826  UNL826      0.1146
   3305 N          17.0054   37.2733   10.3920 N.3   827  UNL827     -0.3437
   3306 H          16.3779   37.5639    9.6436 H     827  UNL827      0.1146
   3307 H          16.8957   37.9629   11.1342 H     827  UNL827      0.1146
   3308 H          16.6218   36.4032   10.7582 H     827  UNL827      0.1146
   3309 N          16.2385   36.4516   13.3383 N.3   828  UNL828     -0.3437
   3310 H          15.4619   36.0155   13.8332 H     828  UNL828      0.1146
   3311 H          16.0719   36.2805   12.3476 H     828  UNL828      0.1146
   3312 H          16.1285   37.4558   13.4721 H     828  UNL828      0.1146
   3313 N          16.6001   37.4546   15.9234 N.3   829  UNL829     -0.3437
   3314 H          17.2341   37.8808   15.2490 H     829  UNL829      0.1146
   3315 H          16.4361   36.5046   15.5933 H     829  UNL829      0.1146
   3316 H          17.1304   37.3636   16.7888 H     829  UNL829      0.1146
   3317 N          16.5104   36.7251   19.0893 N.3   830  UNL830     -0.3437
   3318 H          16.3668   36.3094   18.1701 H     830  UNL830      0.1146
   3319 H          15.9520   37.5774   19.1025 H     830  UNL830      0.1146
   3320 H          16.0715   36.0915   19.7558 H     830  UNL830      0.1146
   3321 N          17.1573   36.2322   22.1579 N.3   831  UNL831     -0.3437
   3322 H          16.7156   36.9191   21.5485 H     831  UNL831      0.1146
   3323 H          17.8829   35.7859   21.5987 H     831  UNL831      0.1146
   3324 H          17.6448   36.7662   22.8760 H     831  UNL831      0.1146
   3325 N          19.1085   -0.2678    2.6602 N.3   832  UNL832     -0.3437
   3326 H          18.2674    0.2561    2.8978 H     832  UNL832      0.1146
   3327 H          18.8669   -0.8333    1.8476 H     832  UNL832      0.1146
   3328 H          19.7848    0.4202    2.3324 H     832  UNL832      0.1146
   3329 N          19.2583   -0.5770    5.2832 N.3   833  UNL833     -0.3437
   3330 H          20.0918    0.0091    5.2744 H     833  UNL833      0.1146
   3331 H          19.4072   -1.2878    4.5683 H     833  UNL833      0.1146
   3332 H          19.2703   -1.0692    6.1753 H     833  UNL833      0.1146
   3333 N          18.8282   -0.7058   10.6300 N.3   834  UNL834     -0.3437
   3334 H          18.1583   -1.0529    9.9452 H     834  UNL834      0.1146
   3335 H          19.7481   -0.9767   10.2854 H     834  UNL834      0.1146
   3336 H          18.7930    0.3106   10.5672 H     834  UNL834      0.1146
   3337 N          19.3140   -0.5321   12.9841 N.3   835  UNL835     -0.3437
   3338 H          18.8723    0.2871   13.3991 H     835  UNL835      0.1146
   3339 H          20.0396   -0.1759   12.3636 H     835  UNL835      0.1146
   3340 H          19.8015   -1.0039   13.7445 H     835  UNL835      0.1146
   3341 N          19.1256   -0.3643   18.5465 N.3   836  UNL836     -0.3437
   3342 H          18.5725   -1.2086   18.4065 H     836  UNL836      0.1146
   3343 H          19.2985   -0.3048   19.5490 H     836  UNL836      0.1146
   3344 H          20.0309   -0.5470   18.1158 H     836  UNL836      0.1146
   3345 N          19.1880   -0.7162   21.6838 N.3   837  UNL837     -0.3437
   3346 H          20.1370   -1.0065   21.4524 H     837  UNL837      0.1146
   3347 H          18.5769   -1.4577   21.3444 H     837  UNL837      0.1146
   3348 H          19.1257   -0.7444   22.7005 H     837  UNL837      0.1146
   3349 N          19.3950    0.0759   -0.2203 N.3   838  UNL838     -0.3437
   3350 H          20.1276   -0.5710   -0.5088 H     838  UNL838      0.1146
   3351 H          19.8292    0.7127    0.4463 H     838  UNL838      0.1146
   3352 H          19.1757    0.6366   -1.0424 H     838  UNL838      0.1146
   3353 N          19.0531    2.1011    2.8544 N.3   839  UNL839     -0.3437
   3354 H          18.3191    2.7081    3.2167 H     839  UNL839      0.1146
   3355 H          18.7736    1.8583    1.9050 H     839  UNL839      0.1146
   3356 H          19.8818    2.6868    2.7620 H     839  UNL839      0.1146
   3357 N          19.5133    2.4727    5.4957 N.3   840  UNL840     -0.3437
   3358 H          20.0669    3.2127    5.0664 H     840  UNL840      0.1146
   3359 H          18.5718    2.5716    5.1187 H     840  UNL840      0.1146
   3360 H          19.8755    1.5973    5.1204 H     840  UNL840      0.1146
   3361 N          19.3140    0.6582    8.0771 N.3   841  UNL841     -0.3437
   3362 H          18.8723   -0.2136    7.7886 H     841  UNL841      0.1146
   3363 H          20.0396    0.3982    8.7437 H     841  UNL841      0.1146
   3364 H          19.8015    1.0115    7.2550 H     841  UNL841      0.1146
   3365 N          19.0282    2.5346   10.7730 N.3   842  UNL842     -0.3437
   3366 H          19.6487    1.9492   10.2156 H     842  UNL842      0.1146
   3367 H          18.3899    2.9759   10.1125 H     842  UNL842      0.1146
   3368 H          18.4608    1.8946   11.3269 H     842  UNL842      0.1146
   3369 N          19.7044    2.5265   13.4871 N.3   843  UNL843     -0.3437
   3370 H          19.3211    2.8493   12.5999 H     843  UNL843      0.1146
   3371 H          18.9045    2.3741   14.0998 H     843  UNL843      0.1146
   3372 H          20.0977    1.6044   13.3043 H     843  UNL843      0.1146
   3373 N          19.1890    0.6582   15.8746 N.3   844  UNL844     -0.3437
   3374 H          18.7473   -0.2136   15.5861 H     844  UNL844      0.1146
   3375 H          19.9146    0.3982   16.5412 H     844  UNL844      0.1146
   3376 H          19.6765    1.0115   15.0525 H     844  UNL844      0.1146
   3377 N          19.6552    2.3552   19.3738 N.3   845  UNL845     -0.3437
   3378 H          18.9742    1.6410   19.6279 H     845  UNL845      0.1146
   3379 H          19.3043    2.7867   18.5200 H     845  UNL845      0.1146
   3380 H          19.5939    3.0714   20.0961 H     845  UNL845      0.1146
   3381 N          19.6444    1.7005   21.9479 N.3   846  UNL846     -0.3437
   3382 H          19.6759    1.1728   22.8190 H     846  UNL846      0.1146
   3383 H          18.6576    1.8692   21.7572 H     846  UNL846      0.1146
   3384 H          20.0497    2.6118   22.1568 H     846  UNL846      0.1146
   3385 N          19.3140    3.3529    0.1547 N.3   847  UNL847     -0.3437
   3386 H          18.8723    2.4811   -0.1338 H     847  UNL847      0.1146
   3387 H          20.0396    3.0930    0.8213 H     847  UNL847      0.1146
   3388 H          19.8015    3.7063   -0.6674 H     847  UNL847      0.1146
   3389 N          19.3242    5.2467    2.5502 N.3   848  UNL848     -0.3437
   3390 H          18.5135    5.7707    2.2237 H     848  UNL848      0.1146
   3391 H          19.6301    4.6812    1.7595 H     848  UNL848      0.1146
   3392 H          20.0598    5.9348    2.7045 H     848  UNL848      0.1146
   3393 N          18.8140    5.3529    5.4363 N.3   849  UNL849     -0.3437
   3394 H          18.3723    4.4811    5.1478 H     849  UNL849      0.1146
   3395 H          19.5396    5.0930    6.1029 H     849  UNL849      0.1146
   3396 H          19.3015    5.7063    4.6142 H     849  UNL849      0.1146
   3397 N          19.3140    3.3548    8.1015 N.3   850  UNL850     -0.3437
   3398 H          18.8723    3.9626    7.4131 H     850  UNL850      0.1146
   3399 H          20.0396    2.8439    7.6006 H     850  UNL850      0.1146
   3400 H          19.8015    3.9720    8.7494 H     850  UNL850      0.1146
   3401 N          19.3140    5.1991   10.8145 N.3   851  UNL851     -0.3437
   3402 H          18.8723    5.3697    9.9122 H     851  UNL851      0.1146
   3403 H          20.0396    4.5039   10.6451 H     851  UNL851      0.1146
   3404 H          19.8015    6.0607   11.0560 H     851  UNL851      0.1146
   3405 N          19.6444    4.9132   13.2813 N.3   852  UNL852     -0.3437
   3406 H          19.6759    5.0285   14.2933 H     852  UNL852      0.1146
   3407 H          18.6576    4.9299   13.0273 H     852  UNL852      0.1146
   3408 H          20.0497    5.7619   12.8892 H     852  UNL852      0.1146
   3409 N          19.3140    3.4175   16.1969 N.3   853  UNL853     -0.3437
   3410 H          18.8723    4.0383   16.8736 H     853  UNL853      0.1146
   3411 H          20.0396    3.9692   15.7414 H     853  UNL853      0.1146
   3412 H          19.8015    2.7084   16.7427 H     853  UNL853      0.1146
   3413 N          19.3140    5.1217   19.1846 N.3   854  UNL854     -0.3437
   3414 H          18.8723    5.6457   18.4304 H     854  UNL854      0.1146
   3415 H          20.0396    4.5562   18.7462 H     854  UNL854      0.1146
   3416 H          19.8015    5.8098   19.7566 H     854  UNL854      0.1146
   3417 N          19.3920    4.9442   21.9505 N.3   855  UNL855     -0.3437
   3418 H          18.6914    4.3904   22.4412 H     855  UNL855      0.1146
   3419 H          19.8468    5.5155   22.6613 H     855  UNL855      0.1146
   3420 H          20.0973    4.2831   21.6281 H     855  UNL855      0.1146
   3421 N          19.2353    6.3891    0.0297 N.3   856  UNL856     -0.3437
   3422 H          19.4191    5.4292   -0.2588 H     856  UNL856      0.1146
   3423 H          19.9683    6.6273    0.6963 H     856  UNL856      0.1146
   3424 H          19.4048    6.9668   -0.7924 H     856  UNL856      0.1146
   3425 N          18.5640    8.1915    2.4646 N.3   857  UNL857     -0.3437
   3426 H          18.1223    8.7154    1.7105 H     857  UNL857      0.1146
   3427 H          19.2896    7.6260    2.0263 H     857  UNL857      0.1146
   3428 H          19.0515    8.8796    3.0367 H     857  UNL857      0.1146
   3429 N          19.3140    7.7700    5.4082 N.3   858  UNL858     -0.3437
   3430 H          18.8723    8.5392    4.9066 H     858  UNL858      0.1146
   3431 H          20.0396    7.4110    4.7893 H     858  UNL858      0.1146
   3432 H          19.8015    8.1923    6.1971 H     858  UNL858      0.1146
   3433 N          19.3140    6.4227    8.0771 N.3   859  UNL859     -0.3437
   3434 H          18.8723    5.5509    7.7886 H     859  UNL859      0.1146
   3435 H          20.0396    6.1628    8.7437 H     859  UNL859      0.1146
   3436 H          19.8015    6.7761    7.2550 H     859  UNL859      0.1146
   3437 N          18.9242    7.7640   10.0457 N.3   860  UNL860     -0.3437
   3438 H          18.5742    8.6810    9.7721 H     860  UNL860      0.1146
   3439 H          19.9366    7.8584   10.1133 H     860  UNL860      0.1146
   3440 H          18.5925    7.6090   10.9967 H     860  UNL860      0.1146
   3441 N          19.3002    7.8935   13.0561 N.3   861  UNL861     -0.3437
   3442 H          18.5710    8.1144   13.7327 H     861  UNL861      0.1146
   3443 H          19.5367    8.7738   12.6005 H     861  UNL861      0.1146
   3444 H          20.1196    7.6307   13.6019 H     861  UNL861      0.1146
   3445 N          18.8140    6.1727   15.9996 N.3   862  UNL862     -0.3437
   3446 H          18.3723    5.3009   15.7111 H     862  UNL862      0.1146
   3447 H          19.5396    5.9128   16.6662 H     862  UNL862      0.1146
   3448 H          19.3015    6.5261   15.1775 H     862  UNL862      0.1146
   3449 N          19.7266    8.0644   19.2654 N.3   863  UNL863     -0.3437
   3450 H          20.0336    8.9922   18.9769 H     863  UNL863      0.1146
   3451 H          18.9704    8.2135   19.9320 H     863  UNL863      0.1146
   3452 H          19.2970    7.6424   18.4433 H     863  UNL863      0.1146
   3453 N          19.6444    7.8904   22.6668 N.3   864  UNL864     -0.3437
   3454 H          19.6759    8.9005   22.5361 H     864  UNL864      0.1146
   3455 H          18.6576    7.6362   22.6539 H     864  UNL864      0.1146
   3456 H          20.0497    7.4854   21.8242 H     864  UNL864      0.1146
   3457 N          19.4734    9.2059   -0.2848 N.3   865  UNL865     -0.3437
   3458 H          18.5907    8.6976   -0.2565 H     865  UNL865      0.1146
   3459 H          19.8884    9.0999    0.6398 H     865  UNL865      0.1146
   3460 H          20.0752    8.6883   -0.9238 H     865  UNL865      0.1146
   3461 N          19.3242   10.8863    2.6752 N.3   866  UNL866     -0.3437
   3462 H          18.5135   11.4102    2.3487 H     866  UNL866      0.1146
   3463 H          19.6301   10.3208    1.8845 H     866  UNL866      0.1146
   3464 H          20.0598   11.5743    2.8295 H     866  UNL866      0.1146
   3465 N          19.3140   10.8070    5.2586 N.3   867  UNL867     -0.3437
   3466 H          18.8723   11.4278    5.9353 H     867  UNL867      0.1146
   3467 H          20.0396   11.3588    4.8031 H     867  UNL867      0.1146
   3468 H          19.8015   10.0979    5.8044 H     867  UNL867      0.1146
   3469 N          19.6467    9.4646    7.8910 N.3   868  UNL868     -0.3437
   3470 H          18.6918    9.2378    7.6171 H     868  UNL868      0.1146
   3471 H          19.5778    9.9166    8.8018 H     868  UNL868      0.1146
   3472 H          20.1114    8.5726    8.0547 H     868  UNL868      0.1146
   3473 N          19.1323   11.1427   10.6062 N.3   869  UNL869     -0.3437
   3474 H          18.7388   11.5873   11.4344 H     869  UNL869      0.1146
   3475 H          20.1348   11.3221   10.6406 H     869  UNL869      0.1146
   3476 H          19.0216   10.1395   10.7466 H     869  UNL869      0.1146
   3477 N          19.3140   10.7140   13.6670 N.3   870  UNL870     -0.3437
   3478 H          18.8723   11.6190   13.8226 H     870  UNL870      0.1146
   3479 H          20.0396   10.8718   12.9691 H     870  UNL870      0.1146
   3480 H          19.8015   10.4868   14.5325 H     870  UNL870      0.1146
   3481 N          20.1326    8.8203   16.4417 N.3   871  UNL871     -0.3437
   3482 H          19.9521    8.6955   15.4466 H     871  UNL871      0.1146
   3483 H          19.3112    9.2906   16.8193 H     871  UNL871      0.1146
   3484 H          20.1317    7.8852   16.8468 H     871  UNL871      0.1146
   3485 N          18.4300   10.7203   18.6298 N.3   872  UNL872     -0.3437
   3486 H          18.2588    9.9816   19.3105 H     872  UNL872      0.1146
   3487 H          17.9202   11.5360   18.9663 H     872  UNL872      0.1146
   3488 H          19.4185   10.9537   18.7112 H     872  UNL872      0.1146
   3489 N          19.6444   11.1033   21.1057 N.3   873  UNL873     -0.3437
   3490 H          19.6759   10.1274   20.8142 H     873  UNL873      0.1146
   3491 H          18.6576   11.3303   21.2209 H     873  UNL873      0.1146
   3492 H          20.0497   11.1305   22.0403 H     873  UNL873      0.1146
   3493 N          19.7289   11.6109   -0.4754 N.3   874  UNL874     -0.3437
   3494 H          19.5541   11.1993    0.4402 H     874  UNL874      0.1146
   3495 H          18.8452   11.5586   -0.9802 H     874  UNL874      0.1146
   3496 H          19.8995   12.6018   -0.3100 H     874  UNL874      0.1146
   3497 N          19.1855   13.8254    2.2343 N.3   875  UNL875     -0.3437
   3498 H          19.3815   13.1750    1.4747 H     875  UNL875      0.1146
   3499 H          18.8748   13.2549    3.0194 H     875  UNL875      0.1146
   3500 H          20.0858   14.2153    2.5095 H     875  UNL875      0.1146
   3501 N          19.3140   13.9373    5.5613 N.3   876  UNL876     -0.3437
   3502 H          18.8723   13.0655    5.2728 H     876  UNL876      0.1146
   3503 H          20.0396   13.6773    6.2279 H     876  UNL876      0.1146
   3504 H          19.8015   14.2906    4.7392 H     876  UNL876      0.1146
   3505 N          19.4734   12.2757    8.0126 N.3   877  UNL877     -0.3437
   3506 H          18.5907   11.7673    8.0410 H     877  UNL877      0.1146
   3507 H          19.8884   12.1696    8.9373 H     877  UNL877      0.1146
   3508 H          20.0752   11.7580    7.3737 H     877  UNL877      0.1146
   3509 N          19.3648   13.7653   10.3871 N.3   878  UNL878     -0.3437
   3510 H          18.7465   13.4697    9.6329 H     878  UNL878      0.1146
   3511 H          20.0947   14.3253    9.9487 H     878  UNL878      0.1146
   3512 H          18.8216   14.4103   10.9591 H     878  UNL878      0.1146
   3513 N          19.2562   13.8991   13.2389 N.3   879  UNL879     -0.3437
   3514 H          19.3785   13.4004   14.1191 H     879  UNL879      0.1146
   3515 H          20.0867   14.4788   13.1268 H     879  UNL879      0.1146
   3516 H          19.3061   13.1924   12.5064 H     879  UNL879      0.1146
   3517 N          19.3140   11.8123   16.4996 N.3   880  UNL880     -0.3437
   3518 H          18.8723   10.9405   16.2111 H     880  UNL880      0.1146
   3519 H          20.0396   11.5523   17.1662 H     880  UNL880      0.1146
   3520 H          19.8015   12.1656   15.6775 H     880  UNL880      0.1146
   3521 N          19.3140   13.4560   19.0596 N.3   881  UNL881     -0.3437
   3522 H          18.8723   13.9800   18.3054 H     881  UNL881      0.1146
   3523 H          20.0396   12.8905   18.6212 H     881  UNL881      0.1146
   3524 H          19.8015   14.1441   19.6316 H     881  UNL881      0.1146
   3525 N          18.9518   13.4449   22.6537 N.3   882  UNL882     -0.3437
   3526 H          18.3584   13.2280   21.8543 H     882  UNL882      0.1146
   3527 H          19.9117   13.3640   22.3212 H     882  UNL882      0.1146
   3528 H          18.8057   14.4338   22.8518 H     882  UNL882      0.1146
   3529 N          19.3140   14.8820   -0.3453 N.3   883  UNL883     -0.3437
   3530 H          18.8723   14.0102   -0.6338 H     883  UNL883      0.1146
   3531 H          20.0396   14.6221    0.3213 H     883  UNL883      0.1146
   3532 H          19.8015   15.2354   -1.1674 H     883  UNL883      0.1146
   3533 N          18.8237   16.4602    2.2394 N.3   884  UNL884     -0.3437
   3534 H          19.5502   17.0751    2.6034 H     884  UNL884      0.1146
   3535 H          18.0104   17.0522    2.0764 H     884  UNL884      0.1146
   3536 H          19.1432   16.1624    1.3187 H     884  UNL884      0.1146
   3537 N          19.2782   16.7763    4.9077 N.3   885  UNL885     -0.3437
   3538 H          20.0769   17.2706    5.3029 H     885  UNL885      0.1146
   3539 H          19.2181   15.8921    5.4107 H     885  UNL885      0.1146
   3540 H          18.4544   17.3108    5.1799 H     885  UNL885      0.1146
   3541 N          18.5472   14.8820    8.0469 N.3   886  UNL886     -0.3437
   3542 H          18.0213   14.0102    8.0889 H     886  UNL886      0.1146
   3543 H          19.5290   14.6221    8.1304 H     886  UNL886      0.1146
   3544 H          18.4300   15.2354    7.0984 H     886  UNL886      0.1146
   3545 N          19.2247   16.7438   10.2678 N.3   887  UNL887     -0.3437
   3546 H          19.9779   16.4465   10.8865 H     887  UNL887      0.1146
   3547 H          18.8046   15.8889    9.9058 H     887  UNL887      0.1146
   3548 H          18.5203   17.1706   10.8678 H     887  UNL887      0.1146
   3549 N          19.1614   16.7570   12.9676 N.3   888  UNL888     -0.3437
   3550 H          18.9885   15.8852   12.4692 H     888  UNL888      0.1146
   3551 H          19.3277   16.4971   13.9388 H     888  UNL888      0.1146
   3552 H          20.0500   17.1104   12.6155 H     888  UNL888      0.1146
   3553 N          19.3140   14.4727   16.0775 N.3   889  UNL889     -0.3437
   3554 H          18.8723   15.2839   15.6470 H     889  UNL889      0.1146
   3555 H          20.0396   14.1707   15.4289 H     889  UNL889      0.1146
   3556 H          19.8015   14.8225   16.9011 H     889  UNL889      0.1146
   3557 N          19.1615   16.0434   18.8227 N.3   890  UNL890     -0.3437
   3558 H          19.7562   16.5025   19.5111 H     890  UNL890      0.1146
   3559 H          18.5425   15.4299   19.3508 H     890  UNL890      0.1146
   3560 H          18.5673   16.7739   18.4331 H     890  UNL890      0.1146
   3561 N          19.6444   17.0413   22.5472 N.3   891  UNL891     -0.3437
   3562 H          19.6759   17.0778   21.5293 H     891  UNL891      0.1146
   3563 H          18.6576   16.9869   22.7959 H     891  UNL891      0.1146
   3564 H          20.0497   16.1437   22.8087 H     891  UNL891      0.1146
   3565 N          19.7999   17.9153   -0.2662 N.3   892  UNL892     -0.3437
   3566 H          18.8093   18.1419   -0.3422 H     892  UNL892      0.1146
   3567 H          20.0467   18.0596    0.7119 H     892  UNL892      0.1146
   3568 H          19.8718   16.9120   -0.4289 H     892  UNL892      0.1146
   3569 N          17.1942   19.1167    1.7710 N.3   893  UNL893     -0.3437
   3570 H          18.1564   18.8542    1.9799 H     893  UNL893      0.1146
   3571 H          16.6072   18.5042    2.3356 H     893  UNL893      0.1146
   3572 H          17.0698   20.0538    2.1514 H     893  UNL893      0.1146
   3573 N          19.3140   19.2834    3.7106 N.3   894  UNL894     -0.3437
   3574 H          18.8723   20.1744    3.4882 H     894  UNL894      0.1146
   3575 H          20.0396   19.1467    3.0083 H     894  UNL894      0.1146
   3576 H          19.8015   19.4244    4.5942 H     894  UNL894      0.1146
   3577 N          19.3140   17.0956    7.9963 N.3   895  UNL895     -0.3437
   3578 H          18.8723   17.6195    7.2421 H     895  UNL895      0.1146
   3579 H          20.0396   16.5301    7.5579 H     895  UNL895      0.1146
   3580 H          19.8015   17.7837    8.5683 H     895  UNL895      0.1146
   3581 N          19.2140   19.7613   10.5019 N.3   896  UNL896     -0.3437
   3582 H          18.4110   19.4897    9.9364 H     896  UNL896      0.1146
   3583 H          19.3958   18.9770   11.1266 H     896  UNL896      0.1146
   3584 H          20.0068   19.8010    9.8630 H     896  UNL896      0.1146
   3585 N          19.3672   19.5803   13.5420 N.3   897  UNL897     -0.3437
   3586 H          20.0956   19.9987   12.9652 H     897  UNL897      0.1146
   3587 H          18.7403   19.0999   12.8981 H     897  UNL897      0.1146
   3588 H          19.8246   18.8500   14.0859 H     897  UNL897      0.1146
   3589 N          19.6467   17.5115   15.9573 N.3   898  UNL898     -0.3437
   3590 H          18.6918   17.4996   15.6018 H     898  UNL898      0.1146
   3591 H          19.5778   17.3120   16.9542 H     898  UNL898      0.1146
   3592 H          20.1114   16.7058   15.5411 H     898  UNL898      0.1146
   3593 N          19.3140   19.0479   18.7370 N.3   899  UNL899     -0.3437
   3594 H          18.8723   19.2185   17.8347 H     899  UNL899      0.1146
   3595 H          20.0396   18.3528   18.5676 H     899  UNL899      0.1146
   3596 H          19.8015   19.9096   18.9785 H     899  UNL899      0.1146
   3597 N          18.3944   19.5340   20.9100 N.3   900  UNL900     -0.3437
   3598 H          18.4259   18.5836   21.2763 H     900  UNL900      0.1146
   3599 H          17.4076   19.7841   20.8622 H     900  UNL900      0.1146
   3600 H          18.7997   20.1272   21.6326 H     900  UNL900      0.1146
   3601 N          19.6673   20.6741    0.6547 N.3   901  UNL901     -0.3437
   3602 H          18.7349   20.9670    0.3662 H     901  UNL901      0.1146
   3603 H          19.5297   19.9157    1.3213 H     901  UNL901      0.1146
   3604 H          20.0957   20.2511   -0.1674 H     901  UNL901      0.1146
   3605 N          19.3140   22.6745    2.3372 N.3   902  UNL902     -0.3437
   3606 H          18.8723   22.9651    3.2083 H     902  UNL902      0.1146
   3607 H          20.0396   23.3641    2.1465 H     902  UNL902      0.1146
   3608 H          19.8015   21.8044    2.5461 H     902  UNL902      0.1146
   3609 N          19.3720   22.2165    5.3445 N.3   903  UNL903     -0.3437
   3610 H          19.8227   22.0968    6.2505 H     903  UNL903      0.1146
   3611 H          20.0434   22.7126    4.7601 H     903  UNL903      0.1146
   3612 H          19.2894   21.2822    4.9462 H     903  UNL903      0.1146
   3613 N          19.3950   20.1181    7.2806 N.3   904  UNL904     -0.3437
   3614 H          20.1276   20.6371    7.7627 H     904  UNL904      0.1146
   3615 H          19.8292   19.7309    6.4440 H     904  UNL904      0.1146
   3616 H          19.1757   19.3218    7.8774 H     904  UNL904      0.1146
   3617 N          18.8624   21.9844   10.5976 N.3   905  UNL905     -0.3437
   3618 H          18.5415   22.8948   10.2712 H     905  UNL905      0.1146
   3619 H          18.7585   21.3499    9.8070 H     905  UNL905      0.1146
   3620 H          19.8652   22.0788   10.7520 H     905  UNL905      0.1146
   3621 N          19.3140   22.3966   13.3588 N.3   906  UNL906     -0.3437
   3622 H          18.8723   21.5248   13.0703 H     906  UNL906      0.1146
   3623 H          20.0396   22.1367   14.0254 H     906  UNL906      0.1146
   3624 H          19.8015   22.7499   12.5367 H     906  UNL906      0.1146
   3625 N          19.3140   20.3966   16.1246 N.3   907  UNL907     -0.3437
   3626 H          18.8723   19.5248   15.8361 H     907  UNL907      0.1146
   3627 H          20.0396   20.1367   16.7912 H     907  UNL907      0.1146
   3628 H          19.8015   20.7499   15.3025 H     907  UNL907      0.1146
   3629 N          19.1307   22.3116   18.9746 N.3   908  UNL908     -0.3437
   3630 H          18.5786   22.4591   19.8182 H     908  UNL908      0.1146
   3631 H          20.0667   22.0624   19.2914 H     908  UNL908      0.1146
   3632 H          18.7516   21.4749   18.5335 H     908  UNL908      0.1146
   3633 N          19.8230   22.0424   22.4871 N.3   909  UNL909     -0.3437
   3634 H          20.1007   21.1377   22.8652 H     909  UNL909      0.1146
   3635 H          19.7177   21.9067   21.4827 H     909  UNL909      0.1146
   3636 H          18.8862   22.2212   22.8461 H     909  UNL909      0.1146
   3637 N          18.8509   23.0914   -0.7400 N.3   910  UNL910     -0.3437
   3638 H          19.0190   22.2196   -1.2401 H     910  UNL910      0.1146
   3639 H          18.3884   22.8314    0.1300 H     910  UNL910      0.1146
   3640 H          19.7693   23.4447   -0.4751 H     910  UNL910      0.1146
   3641 N          18.4092   24.9612    2.6265 N.3   911  UNL911     -0.3437
   3642 H          19.2479   24.4815    2.9503 H     911  UNL911      0.1146
   3643 H          18.1777   25.6410    3.3495 H     911  UNL911      0.1146
   3644 H          18.6927   25.5034    1.8117 H     911  UNL911      0.1146
   3645 N          19.3548   24.6492    5.3795 N.3   912  UNL912     -0.3437
   3646 H          18.7830   25.4887    5.4607 H     912  UNL912      0.1146
   3647 H          19.7528   24.6701    4.4416 H     912  UNL912      0.1146
   3648 H          20.1370   24.7791    6.0195 H     912  UNL912      0.1146
   3649 N          19.3140   23.0914    8.2021 N.3   913  UNL913     -0.3437
   3650 H          18.8723   22.2196    7.9136 H     913  UNL913      0.1146
   3651 H          20.0396   22.8314    8.8687 H     913  UNL913      0.1146
   3652 H          19.8015   23.4447    7.3800 H     913  UNL913      0.1146
   3653 N          19.3648   24.8144   10.1760 N.3   914  UNL914     -0.3437
   3654 H          18.7465   25.4699    9.7001 H     914  UNL914      0.1146
   3655 H          20.0947   25.3796   10.6076 H     914  UNL914      0.1146
   3656 H          18.8216   24.4231   10.9442 H     914  UNL914      0.1146
   3657 N          19.3205   25.1756   13.0035 N.3   915  UNL915     -0.3437
   3658 H          18.6085   24.4636   12.8468 H     915  UNL915      0.1146
   3659 H          18.9691   25.7627   13.7586 H     915  UNL915      0.1146
   3660 H          20.1295   24.6852   13.3823 H     915  UNL915      0.1146
   3661 N          19.3140   23.2164   16.1246 N.3   916  UNL916     -0.3437
   3662 H          18.8723   22.3446   15.8361 H     916  UNL916      0.1146
   3663 H          20.0396   22.9564   16.7912 H     916  UNL916      0.1146
   3664 H          19.8015   23.5697   15.3025 H     916  UNL916      0.1146
   3665 N          19.4414   25.2472   19.1069 N.3   917  UNL917     -0.3437
   3666 H          20.0928   24.5608   19.4849 H     917  UNL917      0.1146
   3667 H          20.0150   25.9870   18.7044 H     917  UNL917      0.1146
   3668 H          18.9783   24.7921   18.3215 H     917  UNL917      0.1146
   3669 N          19.8766   25.0087   22.2035 N.3   918  UNL918     -0.3437
   3670 H          19.3687   24.4810   22.9119 H     918  UNL918      0.1146
   3671 H          19.2127   25.1774   21.4491 H     918  UNL918      0.1146
   3672 H          20.0695   25.9200   22.6167 H     918  UNL918      0.1146
   3673 N          19.3140   26.1611    0.1547 N.3   919  UNL919     -0.3437
   3674 H          18.8723   25.2893   -0.1338 H     919  UNL919      0.1146
   3675 H          20.0396   25.9012    0.8213 H     919  UNL919      0.1146
   3676 H          19.8015   26.5145   -0.6674 H     919  UNL919      0.1146
   3677 N          19.0734   27.9474    2.5388 N.3   920  UNL920     -0.3437
   3678 H          19.3111   27.5503    1.6309 H     920  UNL920      0.1146
   3679 H          18.6835   27.1818    3.0868 H     920  UNL920      0.1146
   3680 H          19.9595   28.1867    2.9814 H     920  UNL920      0.1146
   3681 N          19.3410   27.6679    5.2195 N.3   921  UNL921     -0.3437
   3682 H          19.7708   27.8489    6.1255 H     921  UNL921      0.1146
   3683 H          19.5687   28.4711    4.6351 H     921  UNL921      0.1146
   3684 H          19.8471   26.8783    4.8212 H     921  UNL921      0.1146
   3685 N          19.3140   25.9111    7.8271 N.3   922  UNL922     -0.3437
   3686 H          18.8723   25.0393    7.5386 H     922  UNL922      0.1146
   3687 H          20.0396   25.6512    8.4937 H     922  UNL922      0.1146
   3688 H          19.8015   26.2645    7.0050 H     922  UNL922      0.1146
   3689 N          19.2541   27.5340   10.6336 N.3   923  UNL923     -0.3437
   3690 H          19.3845   27.4631    9.6254 H     923  UNL923      0.1146
   3691 H          18.8959   28.4725   10.8051 H     923  UNL923      0.1146
   3692 H          18.4931   26.8966   10.8638 H     923  UNL923      0.1146
   3693 N          19.3140   28.2861   13.3588 N.3   924  UNL924     -0.3437
   3694 H          18.8723   27.4143   13.0703 H     924  UNL924      0.1146
   3695 H          20.0396   28.0262   14.0254 H     924  UNL924      0.1146
   3696 H          19.8015   28.6395   12.5367 H     924  UNL924      0.1146
   3697 N          20.0201   26.3510   15.7659 N.3   925  UNL925     -0.3437
   3698 H          19.9811   25.5722   15.1099 H     925  UNL925      0.1146
   3699 H          19.2598   26.9770   15.5042 H     925  UNL925      0.1146
   3700 H          19.7665   25.9659   16.6745 H     925  UNL925      0.1146
   3701 N          18.7557   27.8515   18.2571 N.3   926  UNL926     -0.3437
   3702 H          18.2036   28.7051   18.3267 H     926  UNL926      0.1146
   3703 H          19.6917   28.0955   18.5780 H     926  UNL926      0.1146
   3704 H          18.3766   27.2141   18.9559 H     926  UNL926      0.1146
   3705 N          18.9748   27.5065   21.1145 N.3   927  UNL927     -0.3437
   3706 H          18.7388   28.4923   21.0106 H     927  UNL927      0.1146
   3707 H          19.2049   27.3749   22.0985 H     927  UNL927      0.1146
   3708 H          18.1091   26.9924   20.9574 H     927  UNL927      0.1146
   3709 N          19.3140   29.3529    0.1349 N.3   928  UNL928     -0.3437
   3710 H          18.8723   29.4127   -0.7814 H     928  UNL928      0.1146
   3711 H          20.0396   28.6423    0.0512 H     928  UNL928      0.1146
   3712 H          19.8015   30.2374    0.2700 H     928  UNL928      0.1146
   3713 N          18.4398   30.5918    2.5826 N.3   929  UNL929     -0.3437
   3714 H          17.8314   29.8163    2.3240 H     929  UNL929      0.1146
   3715 H          17.9760   31.0668    3.3558 H     929  UNL929      0.1146
   3716 H          19.2803   30.1704    2.9756 H     929  UNL929      0.1146
   3717 N          19.3140   30.6457    5.3958 N.3   930  UNL930     -0.3437
   3718 H          18.8723   30.0478    4.6989 H     930  UNL930      0.1146
   3719 H          20.0396   30.0792    5.8327 H     930  UNL930      0.1146
   3720 H          19.8015   31.3726    4.8739 H     930  UNL930      0.1146
   3721 N          19.3862   29.2793    7.6964 N.3   931  UNL931     -0.3437
   3722 H          18.7128   29.0800    8.4347 H     931  UNL931      0.1146
   3723 H          19.7916   30.1862    7.9234 H     931  UNL931      0.1146
   3724 H          20.1370   28.5998    7.8101 H     931  UNL931      0.1146
   3725 N          19.3140   30.4520   10.6895 N.3   932  UNL932     -0.3437
   3726 H          18.8723   30.6226    9.7872 H     932  UNL932      0.1146
   3727 H          20.0396   29.7569   10.5201 H     932  UNL932      0.1146
   3728 H          19.8015   31.3137   10.9310 H     932  UNL932      0.1146
   3729 N          19.4025   31.3559   13.5411 N.3   933  UNL933     -0.3437
   3730 H          20.0229   30.6923   13.0796 H     933  UNL933      0.1146
   3731 H          18.8652   31.8014   12.7986 H     933  UNL933      0.1146
   3732 H          18.7370   30.7957   14.0719 H     933  UNL933      0.1146
   3733 N          19.3140   29.4974   16.2205 N.3   934  UNL934     -0.3437
   3734 H          18.8723   28.9842   15.4590 H     934  UNL934      0.1146
   3735 H          20.0396   28.8840   16.5888 H     934  UNL934      0.1146
   3736 H          19.8015   30.2798   15.7862 H     934  UNL934      0.1146
   3737 N          20.0487   30.5257   19.3257 N.3   935  UNL935     -0.3437
   3738 H          19.8019   30.4297   18.3417 H     935  UNL935      0.1146
   3739 H          19.6320   31.4026   19.6355 H     935  UNL935      0.1146
   3740 H          19.5450   29.7872   19.8149 H     935  UNL935      0.1146
   3741 N          19.8230   30.0152   22.5920 N.3   936  UNL936     -0.3437
   3742 H          20.1007   30.0230   21.6116 H     936  UNL936      0.1146
   3743 H          19.7177   30.9922   22.8619 H     936  UNL936      0.1146
   3744 H          18.8862   29.6149   22.6155 H     936  UNL936      0.1146
   3745 N          19.3019   32.6271   -0.1762 N.3   937  UNL937     -0.3437
   3746 H          19.6978   33.1864   -0.9304 H     937  UNL937      0.1146
   3747 H          18.9373   31.7825   -0.6146 H     937  UNL937      0.1146
   3748 H          20.0905   32.3284    0.3958 H     937  UNL937      0.1146
   3749 N          20.0270   33.8286    2.4263 N.3   938  UNL938     -0.3437
   3750 H          20.0478   34.1192    1.4499 H     938  UNL938      0.1146
   3751 H          19.4556   34.5182    2.9125 H     938  UNL938      0.1146
   3752 H          19.4971   32.9585    2.4492 H     938  UNL938      0.1146
   3753 N          19.6201   34.4016    5.1611 N.3   939  UNL939     -0.3437
   3754 H          18.7472   34.8979    4.9874 H     939  UNL939      0.1146
   3755 H          19.5503   34.0339    6.1089 H     939  UNL939      0.1146
   3756 H          19.6099   33.5909    4.5439 H     939  UNL939      0.1146
   3757 N          19.4734   32.5030    8.0771 N.3   940  UNL940     -0.3437
   3758 H          18.5907   32.0835    7.7886 H     940  UNL940      0.1146
   3759 H          19.8884   31.8535    8.7437 H     940  UNL940      0.1146
   3760 H          20.0752   32.4843    7.2550 H     940  UNL940      0.1146
   3761 N          19.5137   33.9186   10.3499 N.3   941  UNL941     -0.3437
   3762 H          20.0507   33.6008   11.1554 H     941  UNL941      0.1146
   3763 H          18.5946   33.4870   10.4370 H     941  UNL941      0.1146
   3764 H          19.3686   34.9180   10.4856 H     941  UNL941      0.1146
   3765 N          19.7044   34.7940   13.4871 N.3   942  UNL942     -0.3437
   3766 H          19.3211   35.1168   12.5999 H     942  UNL942      0.1146
   3767 H          18.9045   34.6416   14.0998 H     942  UNL942      0.1146
   3768 H          20.0977   33.8719   13.3043 H     942  UNL942      0.1146
   3769 N          19.7259   32.8954   16.0677 N.3   943  UNL943     -0.3437
   3770 H          20.0374   33.0479   15.1096 H     943  UNL943      0.1146
   3771 H          19.2926   33.7687   16.3646 H     943  UNL943      0.1146
   3772 H          18.9717   32.2124   16.0125 H     943  UNL943      0.1146
   3773 N          19.8993   33.9943   19.0965 N.3   944  UNL944     -0.3437
   3774 H          19.2859   33.3274   19.5628 H     944  UNL944      0.1146
   3775 H          19.4052   34.2901   18.2558 H     944  UNL944      0.1146
   3776 H          19.9372   34.8125   19.7026 H     944  UNL944      0.1146
   3777 N          19.7376   33.6960   21.9888 N.3   945  UNL945     -0.3437
   3778 H          20.0095   34.0340   22.9109 H     945  UNL945      0.1146
   3779 H          19.2252   32.8295   22.1470 H     945  UNL945      0.1146
   3780 H          19.0553   34.3649   21.6344 H     945  UNL945      0.1146
   3781 N          18.8092   35.6745   -0.7184 N.3   946  UNL946     -0.3437
   3782 H          18.1101   35.1735   -0.1720 H     946  UNL946      0.1146
   3783 H          18.4672   36.6307   -0.8032 H     946  UNL946      0.1146
   3784 H          19.6410   35.7248   -0.1318 H     946  UNL946      0.1146
   3785 N          18.9390   37.2733    2.4622 N.3   947  UNL947     -0.3437
   3786 H          18.4973   37.5639    3.3333 H     947  UNL947      0.1146
   3787 H          19.6646   37.9629    2.2715 H     947  UNL947      0.1146
   3788 H          19.4265   36.4032    2.6711 H     947  UNL947      0.1146
   3789 N          19.9324   37.7620    5.5599 N.3   948  UNL948     -0.3437
   3790 H          20.0922   36.8530    5.9919 H     948  UNL948      0.1146
   3791 H          20.0605   37.6235    4.5585 H     948  UNL948      0.1146
   3792 H          18.9425   37.9651    5.6909 H     948  UNL948      0.1146
   3793 N          19.2032   35.6800    7.8713 N.3   949  UNL949     -0.3437
   3794 H          18.5333   35.8244    7.1171 H     949  UNL949      0.1146
   3795 H          20.1231   35.6765    7.4329 H     949  UNL949      0.1146
   3796 H          19.1680   36.5226    8.4433 H     949  UNL949      0.1146
   3797 N          19.9734   37.6936   10.7489 N.3   950  UNL950     -0.3437
   3798 H          19.0451   37.9708   11.0650 H     950  UNL950      0.1146
   3799 H          20.0214   36.6830   10.8708 H     950  UNL950      0.1146
   3800 H          19.9877   37.8561    9.7431 H     950  UNL950      0.1146
   3801 N          18.8192   37.2282   13.3334 N.3   951  UNL951     -0.3437
   3802 H          19.7814   37.5605   13.3787 H     951  UNL951      0.1146
   3803 H          18.2322   38.0595   13.3857 H     951  UNL951      0.1146
   3804 H          18.6948   36.8552   12.3933 H     951  UNL951      0.1146
   3805 N          19.9324   37.4381   16.0207 N.3   952  UNL952     -0.3437
   3806 H          20.0922   38.0215   15.2007 H     952  UNL952      0.1146
   3807 H          20.0605   38.0469   16.8278 H     952  UNL952      0.1146
   3808 H          18.9425   37.1969   16.0053 H     952  UNL952      0.1146
   3809 N          19.0692   37.1483   18.9420 N.3   953  UNL953     -0.3437
   3810 H          20.0314   37.4389   18.7746 H     953  UNL953      0.1146
   3811 H          18.4822   37.8379   18.4748 H     953  UNL953      0.1146
   3812 H          18.9448   36.2782   18.4264 H     953  UNL953      0.1146
   3813 N          20.0421   37.2733   22.0975 N.3   954  UNL954     -0.3437
   3814 H          19.4612   37.5639   21.3123 H     954  UNL954      0.1146
   3815 H          19.8874   37.9629   22.8316 H     954  UNL954      0.1146
   3816 H          19.6369   36.4032   22.4397 H     954  UNL954      0.1146
@<TRIPOS>BOND
     1     1     2    1
     2     1     3    1
     3     1     4    1
     4     5     6    1
     5     5     7    1
     6     5     8    1
     7     9    10    1
     8     9    11    1
     9     9    12    1
    10    13    14    1
    11    13    15    1
    12    13    16    1
    13    17    18    1
    14    17    19    1
    15    17    20    1
    16    21    22    1
    17    21    23    1
    18    21    24    1
    19    25    26    1
    20    25    27    1
    21    25    28    1
    22    29    30    1
    23    29    31    1
    24    29    32    1
    25    33    34    1
    26    33    35    1
    27    33    36    1
    28    37    38    1
    29    37    39    1
    30    37    40    1
    31    41    42    1
    32    41    43    1
    33    41    44    1
    34    45    46    1
    35    45    47    1
    36    45    48    1
    37    49    50    1
    38    49    51    1
    39    49    52    1
    40    53    54    1
    41    53    55    1
    42    53    56    1
    43    57    58    1
    44    57    59    1
    45    57    60    1
    46    61    62    1
    47    61    63    1
    48    61    64    1
    49    65    66    1
    50    65    67    1
    51    65    68    1
    52    69    70    1
    53    69    71    1
    54    69    72    1
    55    73    74    1
    56    73    75    1
    57    73    76    1
    58    77    78    1
    59    77    79    1
    60    77    80    1
    61    81    82    1
    62    81    83    1
    63    81    84    1
    64    85    86    1
    65    85    87    1
    66    85    88    1
    67    89    90    1
    68    89    91    1
    69    89    92    1
    70    93    94    1
    71    93    95    1
    72    93    96    1
    73    97    98    1
    74    97    99    1
    75    97   100    1
    76   101   102    1
    77   101   103    1
    78   101   104    1
    79   105   106    1
    80   105   107    1
    81   105   108    1
    82   109   110    1
    83   109   111    1
    84   109   112    1
    85   113   114    1
    86   113   115    1
    87   113   116    1
    88   117   118    1
    89   117   119    1
    90   117   120    1
    91   121   122    1
    92   121   123    1
    93   121   124    1
    94   125   126    1
    95   125   127    1
    96   125   128    1
    97   129   130    1
    98   129   131    1
    99   129   132    1
   100   133   134    1
   101   133   135    1
   102   133   136    1
   103   137   138    1
   104   137   139    1
   105   137   140    1
   106   141   142    1
   107   141   143    1
   108   141   144    1
   109   145   146    1
   110   145   147    1
   111   145   148    1
   112   149   150    1
   113   149   151    1
   114   149   152    1
   115   153   154    1
   116   153   155    1
   117   153   156    1
   118   157   158    1
   119   157   159    1
   120   157   160    1
   121   161   162    1
   122   161   163    1
   123   161   164    1
   124   165   166    1
   125   165   167    1
   126   165   168    1
   127   169   170    1
   128   169   171    1
   129   169   172    1
   130   173   174    1
   131   173   175    1
   132   173   176    1
   133   177   178    1
   134   177   179    1
   135   177   180    1
   136   181   182    1
   137   181   183    1
   138   181   184    1
   139   185   186    1
   140   185   187    1
   141   185   188    1
   142   189   190    1
   143   189   191    1
   144   189   192    1
   145   193   194    1
   146   193   195    1
   147   193   196    1
   148   197   198    1
   149   197   199    1
   150   197   200    1
   151   201   202    1
   152   201   203    1
   153   201   204    1
   154   205   206    1
   155   205   207    1
   156   205   208    1
   157   209   210    1
   158   209   211    1
   159   209   212    1
   160   213   214    1
   161   213   215    1
   162   213   216    1
   163   217   218    1
   164   217   219    1
   165   217   220    1
   166   221   222    1
   167   221   223    1
   168   221   224    1
   169   225   226    1
   170   225   227    1
   171   225   228    1
   172   229   230    1
   173   229   231    1
   174   229   232    1
   175   233   234    1
   176   233   235    1
   177   233   236    1
   178   237   238    1
   179   237   239    1
   180   237   240    1
   181   241   242    1
   182   241   243    1
   183   241   244    1
   184   245   246    1
   185   245   247    1
   186   245   248    1
   187   249   250    1
   188   249   251    1
   189   249   252    1
   190   253   254    1
   191   253   255    1
   192   253   256    1
   193   257   258    1
   194   257   259    1
   195   257   260    1
   196   261   262    1
   197   261   263    1
   198   261   264    1
   199   265   266    1
   200   265   267    1
   201   265   268    1
   202   269   270    1
   203   269   271    1
   204   269   272    1
   205   273   274    1
   206   273   275    1
   207   273   276    1
   208   277   278    1
   209   277   279    1
   210   277   280    1
   211   281   282    1
   212   281   283    1
   213   281   284    1
   214   285   286    1
   215   285   287    1
   216   285   288    1
   217   289   290    1
   218   289   291    1
   219   289   292    1
   220   293   294    1
   221   293   295    1
   222   293   296    1
   223   297   298    1
   224   297   299    1
   225   297   300    1
   226   301   302    1
   227   301   303    1
   228   301   304    1
   229   305   306    1
   230   305   307    1
   231   305   308    1
   232   309   310    1
   233   309   311    1
   234   309   312    1
   235   313   314    1
   236   313   315    1
   237   313   316    1
   238   317   318    1
   239   317   319    1
   240   317   320    1
   241   321   322    1
   242   321   323    1
   243   321   324    1
   244   325   326    1
   245   325   327    1
   246   325   328    1
   247   329   330    1
   248   329   331    1
   249   329   332    1
   250   333   334    1
   251   333   335    1
   252   333   336    1
   253   337   338    1
   254   337   339    1
   255   337   340    1
   256   341   342    1
   257   341   343    1
   258   341   344    1
   259   345   346    1
   260   345   347    1
   261   345   348    1
   262   349   350    1
   263   349   351    1
   264   349   352    1
   265   353   354    1
   266   353   355    1
   267   353   356    1
   268   357   358    1
   269   357   359    1
   270   357   360    1
   271   361   362    1
   272   361   363    1
   273   361   364    1
   274   365   366    1
   275   365   367    1
   276   365   368    1
   277   369   370    1
   278   369   371    1
   279   369   372    1
   280   373   374    1
   281   373   375    1
   282   373   376    1
   283   377   378    1
   284   377   379    1
   285   377   380    1
   286   381   382    1
   287   381   383    1
   288   381   384    1
   289   385   386    1
   290   385   387    1
   291   385   388    1
   292   389   390    1
   293   389   391    1
   294   389   392    1
   295   393   394    1
   296   393   395    1
   297   393   396    1
   298   397   398    1
   299   397   399    1
   300   397   400    1
   301   401   402    1
   302   401   403    1
   303   401   404    1
   304   405   406    1
   305   405   407    1
   306   405   408    1
   307   409   410    1
   308   409   411    1
   309   409   412    1
   310   413   414    1
   311   413   415    1
   312   413   416    1
   313   417   418    1
   314   417   419    1
   315   417   420    1
   316   421   422    1
   317   421   423    1
   318   421   424    1
   319   425   426    1
   320   425   427    1
   321   425   428    1
   322   429   430    1
   323   429   431    1
   324   429   432    1
   325   433   434    1
   326   433   435    1
   327   433   436    1
   328   437   438    1
   329   437   439    1
   330   437   440    1
   331   441   442    1
   332   441   443    1
   333   441   444    1
   334   445   446    1
   335   445   447    1
   336   445   448    1
   337   449   450    1
   338   449   451    1
   339   449   452    1
   340   453   454    1
   341   453   455    1
   342   453   456    1
   343   457   458    1
   344   457   459    1
   345   457   460    1
   346   461   462    1
   347   461   463    1
   348   461   464    1
   349   465   466    1
   350   465   467    1
   351   465   468    1
   352   469   470    1
   353   469   471    1
   354   469   472    1
   355   473   474    1
   356   473   475    1
   357   473   476    1
   358   477   478    1
   359   477   479    1
   360   477   480    1
   361   481   482    1
   362   481   483    1
   363   481   484    1
   364   485   486    1
   365   485   487    1
   366   485   488    1
   367   489   490    1
   368   489   491    1
   369   489   492    1
   370   493   494    1
   371   493   495    1
   372   493   496    1
   373   497   498    1
   374   497   499    1
   375   497   500    1
   376   501   502    1
   377   501   503    1
   378   501   504    1
   379   505   506    1
   380   505   507    1
   381   505   508    1
   382   509   510    1
   383   509   511    1
   384   509   512    1
   385   513   514    1
   386   513   515    1
   387   513   516    1
   388   517   518    1
   389   517   519    1
   390   517   520    1
   391   521   522    1
   392   521   523    1
   393   521   524    1
   394   525   526    1
   395   525   527    1
   396   525   528    1
   397   529   530    1
   398   529   531    1
   399   529   532    1
   400   533   534    1
   401   533   535    1
   402   533   536    1
   403   537   538    1
   404   537   539    1
   405   537   540    1
   406   541   542    1
   407   541   543    1
   408   541   544    1
   409   545   546    1
   410   545   547    1
   411   545   548    1
   412   549   550    1
   413   549   551    1
   414   549   552    1
   415   553   554    1
   416   553   555    1
   417   553   556    1
   418   557   558    1
   419   557   559    1
   420   557   560    1
   421   561   562    1
   422   561   563    1
   423   561   564    1
   424   565   566    1
   425   565   567    1
   426   565   568    1
   427   569   570    1
   428   569   571    1
   429   569   572    1
   430   573   574    1
   431   573   575    1
   432   573   576    1
   433   577   578    1
   434   577   579    1
   435   577   580    1
   436   581   582    1
   437   581   583    1
   438   581   584    1
   439   585   586    1
   440   585   587    1
   441   585   588    1
   442   589   590    1
   443   589   591    1
   444   589   592    1
   445   593   594    1
   446   593   595    1
   447   593   596    1
   448   597   598    1
   449   597   599    1
   450   597   600    1
   451   601   602    1
   452   601   603    1
   453   601   604    1
   454   605   606    1
   455   605   607    1
   456   605   608    1
   457   609   610    1
   458   609   611    1
   459   609   612    1
   460   613   614    1
   461   613   615    1
   462   613   616    1
   463   617   618    1
   464   617   619    1
   465   617   620    1
   466   621   622    1
   467   621   623    1
   468   621   624    1
   469   625   626    1
   470   625   627    1
   471   625   628    1
   472   629   630    1
   473   629   631    1
   474   629   632    1
   475   633   634    1
   476   633   635    1
   477   633   636    1
   478   637   638    1
   479   637   639    1
   480   637   640    1
   481   641   642    1
   482   641   643    1
   483   641   644    1
   484   645   646    1
   485   645   647    1
   486   645   648    1
   487   649   650    1
   488   649   651    1
   489   649   652    1
   490   653   654    1
   491   653   655    1
   492   653   656    1
   493   657   658    1
   494   657   659    1
   495   657   660    1
   496   661   662    1
   497   661   663    1
   498   661   664    1
   499   665   666    1
   500   665   667    1
   501   665   668    1
   502   669   670    1
   503   669   671    1
   504   669   672    1
   505   673   674    1
   506   673   675    1
   507   673   676    1
   508   677   678    1
   509   677   679    1
   510   677   680    1
   511   681   682    1
   512   681   683    1
   513   681   684    1
   514   685   686    1
   515   685   687    1
   516   685   688    1
   517   689   690    1
   518   689   691    1
   519   689   692    1
   520   693   694    1
   521   693   695    1
   522   693   696    1
   523   697   698    1
   524   697   699    1
   525   697   700    1
   526   701   702    1
   527   701   703    1
   528   701   704    1
   529   705   706    1
   530   705   707    1
   531   705   708    1
   532   709   710    1
   533   709   711    1
   534   709   712    1
   535   713   714    1
   536   713   715    1
   537   713   716    1
   538   717   718    1
   539   717   719    1
   540   717   720    1
   541   721   722    1
   542   721   723    1
   543   721   724    1
   544   725   726    1
   545   725   727    1
   546   725   728    1
   547   729   730    1
   548   729   731    1
   549   729   732    1
   550   733   734    1
   551   733   735    1
   552   733   736    1
   553   737   738    1
   554   737   739    1
   555   737   740    1
   556   741   742    1
   557   741   743    1
   558   741   744    1
   559   745   746    1
   560   745   747    1
   561   745   748    1
   562   749   750    1
   563   749   751    1
   564   749   752    1
   565   753   754    1
   566   753   755    1
   567   753   756    1
   568   757   758    1
   569   757   759    1
   570   757   760    1
   571   761   762    1
   572   761   763    1
   573   761   764    1
   574   765   766    1
   575   765   767    1
   576   765   768    1
   577   769   770    1
   578   769   771    1
   579   769   772    1
   580   773   774    1
   581   773   775    1
   582   773   776    1
   583   777   778    1
   584   777   779    1
   585   777   780    1
   586   781   782    1
   587   781   783    1
   588   781   784    1
   589   785   786    1
   590   785   787    1
   591   785   788    1
   592   789   790    1
   593   789   791    1
   594   789   792    1
   595   793   794    1
   596   793   795    1
   597   793   796    1
   598   797   798    1
   599   797   799    1
   600   797   800    1
   601   801   802    1
   602   801   803    1
   603   801   804    1
   604   805   806    1
   605   805   807    1
   606   805   808    1
   607   809   810    1
   608   809   811    1
   609   809   812    1
   610   813   814    1
   611   813   815    1
   612   813   816    1
   613   817   818    1
   614   817   819    1
   615   817   820    1
   616   821   822    1
   617   821   823    1
   618   821   824    1
   619   825   826    1
   620   825   827    1
   621   825   828    1
   622   829   830    1
   623   829   831    1
   624   829   832    1
   625   833   834    1
   626   833   835    1
   627   833   836    1
   628   837   838    1
   629   837   839    1
   630   837   840    1
   631   841   842    1
   632   841   843    1
   633   841   844    1
   634   845   846    1
   635   845   847    1
   636   845   848    1
   637   849   850    1
   638   849   851    1
   639   849   852    1
   640   853   854    1
   641   853   855    1
   642   853   856    1
   643   857   858    1
   644   857   859    1
   645   857   860    1
   646   861   862    1
   647   861   863    1
   648   861   864    1
   649   865   866    1
   650   865   867    1
   651   865   868    1
   652   869   870    1
   653   869   871    1
   654   869   872    1
   655   873   874    1
   656   873   875    1
   657   873   876    1
   658   877   878    1
   659   877   879    1
   660   877   880    1
   661   881   882    1
   662   881   883    1
   663   881   884    1
   664   885   886    1
   665   885   887    1
   666   885   888    1
   667   889   890    1
   668   889   891    1
   669   889   892    1
   670   893   894    1
   671   893   895    1
   672   893   896    1
   673   897   898    1
   674   897   899    1
   675   897   900    1
   676   901   902    1
   677   901   903    1
   678   901   904    1
   679   905   906    1
   680   905   907    1
   681   905   908    1
   682   909   910    1
   683   909   911    1
   684   909   912    1
   685   913   914    1
   686   913   915    1
   687   913   916    1
   688   917   918    1
   689   917   919    1
   690   917   920    1
   691   921   922    1
   692   921   923    1
   693   921   924    1
   694   925   926    1
   695   925   927    1
   696   925   928    1
   697   929   930    1
   698   929   931    1
   699   929   932    1
   700   933   934    1
   701   933   935    1
   702   933   936    1
   703   937   938    1
   704   937   939    1
   705   937   940    1
   706   941   942    1
   707   941   943    1
   708   941   944    1
   709   945   946    1
   710   945   947    1
   711   945   948    1
   712   949   950    1
   713   949   951    1
   714   949   952    1
   715   953   954    1
   716   953   955    1
   717   953   956    1
   718   957   958    1
   719   957   959    1
   720   957   960    1
   721   961   962    1
   722   961   963    1
   723   961   964    1
   724   965   966    1
   725   965   967    1
   726   965   968    1
   727   969   970    1
   728   969   971    1
   729   969   972    1
   730   973   974    1
   731   973   975    1
   732   973   976    1
   733   977   978    1
   734   977   979    1
   735   977   980    1
   736   981   982    1
   737   981   983    1
   738   981   984    1
   739   985   986    1
   740   985   987    1
   741   985   988    1
   742   989   990    1
   743   989   991    1
   744   989   992    1
   745   993   994    1
   746   993   995    1
   747   993   996    1
   748   997   998    1
   749   997   999    1
   750   997  1000    1
   751  1001  1002    1
   752  1001  1003    1
   753  1001  1004    1
   754  1005  1006    1
   755  1005  1007    1
   756  1005  1008    1
   757  1009  1010    1
   758  1009  1011    1
   759  1009  1012    1
   760  1013  1014    1
   761  1013  1015    1
   762  1013  1016    1
   763  1017  1018    1
   764  1017  1019    1
   765  1017  1020    1
   766  1021  1022    1
   767  1021  1023    1
   768  1021  1024    1
   769  1025  1026    1
   770  1025  1027    1
   771  1025  1028    1
   772  1029  1030    1
   773  1029  1031    1
   774  1029  1032    1
   775  1033  1034    1
   776  1033  1035    1
   777  1033  1036    1
   778  1037  1038    1
   779  1037  1039    1
   780  1037  1040    1
   781  1041  1042    1
   782  1041  1043    1
   783  1041  1044    1
   784  1045  1046    1
   785  1045  1047    1
   786  1045  1048    1
   787  1049  1050    1
   788  1049  1051    1
   789  1049  1052    1
   790  1053  1054    1
   791  1053  1055    1
   792  1053  1056    1
   793  1057  1058    1
   794  1057  1059    1
   795  1057  1060    1
   796  1061  1062    1
   797  1061  1063    1
   798  1061  1064    1
   799  1065  1066    1
   800  1065  1067    1
   801  1065  1068    1
   802  1069  1070    1
   803  1069  1071    1
   804  1069  1072    1
   805  1073  1074    1
   806  1073  1075    1
   807  1073  1076    1
   808  1077  1078    1
   809  1077  1079    1
   810  1077  1080    1
   811  1081  1082    1
   812  1081  1083    1
   813  1081  1084    1
   814  1085  1086    1
   815  1085  1087    1
   816  1085  1088    1
   817  1089  1090    1
   818  1089  1091    1
   819  1089  1092    1
   820  1093  1094    1
   821  1093  1095    1
   822  1093  1096    1
   823  1097  1098    1
   824  1097  1099    1
   825  1097  1100    1
   826  1101  1102    1
   827  1101  1103    1
   828  1101  1104    1
   829  1105  1106    1
   830  1105  1107    1
   831  1105  1108    1
   832  1109  1110    1
   833  1109  1111    1
   834  1109  1112    1
   835  1113  1114    1
   836  1113  1115    1
   837  1113  1116    1
   838  1117  1118    1
   839  1117  1119    1
   840  1117  1120    1
   841  1121  1122    1
   842  1121  1123    1
   843  1121  1124    1
   844  1125  1126    1
   845  1125  1127    1
   846  1125  1128    1
   847  1129  1130    1
   848  1129  1131    1
   849  1129  1132    1
   850  1133  1134    1
   851  1133  1135    1
   852  1133  1136    1
   853  1137  1138    1
   854  1137  1139    1
   855  1137  1140    1
   856  1141  1142    1
   857  1141  1143    1
   858  1141  1144    1
   859  1145  1146    1
   860  1145  1147    1
   861  1145  1148    1
   862  1149  1150    1
   863  1149  1151    1
   864  1149  1152    1
   865  1153  1154    1
   866  1153  1155    1
   867  1153  1156    1
   868  1157  1158    1
   869  1157  1159    1
   870  1157  1160    1
   871  1161  1162    1
   872  1161  1163    1
   873  1161  1164    1
   874  1165  1166    1
   875  1165  1167    1
   876  1165  1168    1
   877  1169  1170    1
   878  1169  1171    1
   879  1169  1172    1
   880  1173  1174    1
   881  1173  1175    1
   882  1173  1176    1
   883  1177  1178    1
   884  1177  1179    1
   885  1177  1180    1
   886  1181  1182    1
   887  1181  1183    1
   888  1181  1184    1
   889  1185  1186    1
   890  1185  1187    1
   891  1185  1188    1
   892  1189  1190    1
   893  1189  1191    1
   894  1189  1192    1
   895  1193  1194    1
   896  1193  1195    1
   897  1193  1196    1
   898  1197  1198    1
   899  1197  1199    1
   900  1197  1200    1
   901  1201  1202    1
   902  1201  1203    1
   903  1201  1204    1
   904  1205  1206    1
   905  1205  1207    1
   906  1205  1208    1
   907  1209  1210    1
   908  1209  1211    1
   909  1209  1212    1
   910  1213  1214    1
   911  1213  1215    1
   912  1213  1216    1
   913  1217  1218    1
   914  1217  1219    1
   915  1217  1220    1
   916  1221  1222    1
   917  1221  1223    1
   918  1221  1224    1
   919  1225  1226    1
   920  1225  1227    1
   921  1225  1228    1
   922  1229  1230    1
   923  1229  1231    1
   924  1229  1232    1
   925  1233  1234    1
   926  1233  1235    1
   927  1233  1236    1
   928  1237  1238    1
   929  1237  1239    1
   930  1237  1240    1
   931  1241  1242    1
   932  1241  1243    1
   933  1241  1244    1
   934  1245  1246    1
   935  1245  1247    1
   936  1245  1248    1
   937  1249  1250    1
   938  1249  1251    1
   939  1249  1252    1
   940  1253  1254    1
   941  1253  1255    1
   942  1253  1256    1
   943  1257  1258    1
   944  1257  1259    1
   945  1257  1260    1
   946  1261  1262    1
   947  1261  1263    1
   948  1261  1264    1
   949  1265  1266    1
   950  1265  1267    1
   951  1265  1268    1
   952  1269  1270    1
   953  1269  1271    1
   954  1269  1272    1
   955  1273  1274    1
   956  1273  1275    1
   957  1273  1276    1
   958  1277  1278    1
   959  1277  1279    1
   960  1277  1280    1
   961  1281  1282    1
   962  1281  1283    1
   963  1281  1284    1
   964  1285  1286    1
   965  1285  1287    1
   966  1285  1288    1
   967  1289  1290    1
   968  1289  1291    1
   969  1289  1292    1
   970  1293  1294    1
   971  1293  1295    1
   972  1293  1296    1
   973  1297  1298    1
   974  1297  1299    1
   975  1297  1300    1
   976  1301  1302    1
   977  1301  1303    1
   978  1301  1304    1
   979  1305  1306    1
   980  1305  1307    1
   981  1305  1308    1
   982  1309  1310    1
   983  1309  1311    1
   984  1309  1312    1
   985  1313  1314    1
   986  1313  1315    1
   987  1313  1316    1
   988  1317  1318    1
   989  1317  1319    1
   990  1317  1320    1
   991  1321  1322    1
   992  1321  1323    1
   993  1321  1324    1
   994  1325  1326    1
   995  1325  1327    1
   996  1325  1328    1
   997  1329  1330    1
   998  1329  1331    1
   999  1329  1332    1
  1000  1333  1334    1
  1001  1333  1335    1
  1002  1333  1336    1
  1003  1337  1338    1
  1004  1337  1339    1
  1005  1337  1340    1
  1006  1341  1342    1
  1007  1341  1343    1
  1008  1341  1344    1
  1009  1345  1346    1
  1010  1345  1347    1
  1011  1345  1348    1
  1012  1349  1350    1
  1013  1349  1351    1
  1014  1349  1352    1
  1015  1353  1354    1
  1016  1353  1355    1
  1017  1353  1356    1
  1018  1357  1358    1
  1019  1357  1359    1
  1020  1357  1360    1
  1021  1361  1362    1
  1022  1361  1363    1
  1023  1361  1364    1
  1024  1365  1366    1
  1025  1365  1367    1
  1026  1365  1368    1
  1027  1369  1370    1
  1028  1369  1371    1
  1029  1369  1372    1
  1030  1373  1374    1
  1031  1373  1375    1
  1032  1373  1376    1
  1033  1377  1378    1
  1034  1377  1379    1
  1035  1377  1380    1
  1036  1381  1382    1
  1037  1381  1383    1
  1038  1381  1384    1
  1039  1385  1386    1
  1040  1385  1387    1
  1041  1385  1388    1
  1042  1389  1390    1
  1043  1389  1391    1
  1044  1389  1392    1
  1045  1393  1394    1
  1046  1393  1395    1
  1047  1393  1396    1
  1048  1397  1398    1
  1049  1397  1399    1
  1050  1397  1400    1
  1051  1401  1402    1
  1052  1401  1403    1
  1053  1401  1404    1
  1054  1405  1406    1
  1055  1405  1407    1
  1056  1405  1408    1
  1057  1409  1410    1
  1058  1409  1411    1
  1059  1409  1412    1
  1060  1413  1414    1
  1061  1413  1415    1
  1062  1413  1416    1
  1063  1417  1418    1
  1064  1417  1419    1
  1065  1417  1420    1
  1066  1421  1422    1
  1067  1421  1423    1
  1068  1421  1424    1
  1069  1425  1426    1
  1070  1425  1427    1
  1071  1425  1428    1
  1072  1429  1430    1
  1073  1429  1431    1
  1074  1429  1432    1
  1075  1433  1434    1
  1076  1433  1435    1
  1077  1433  1436    1
  1078  1437  1438    1
  1079  1437  1439    1
  1080  1437  1440    1
  1081  1441  1442    1
  1082  1441  1443    1
  1083  1441  1444    1
  1084  1445  1446    1
  1085  1445  1447    1
  1086  1445  1448    1
  1087  1449  1450    1
  1088  1449  1451    1
  1089  1449  1452    1
  1090  1453  1454    1
  1091  1453  1455    1
  1092  1453  1456    1
  1093  1457  1458    1
  1094  1457  1459    1
  1095  1457  1460    1
  1096  1461  1462    1
  1097  1461  1463    1
  1098  1461  1464    1
  1099  1465  1466    1
  1100  1465  1467    1
  1101  1465  1468    1
  1102  1469  1470    1
  1103  1469  1471    1
  1104  1469  1472    1
  1105  1473  1474    1
  1106  1473  1475    1
  1107  1473  1476    1
  1108  1477  1478    1
  1109  1477  1479    1
  1110  1477  1480    1
  1111  1481  1482    1
  1112  1481  1483    1
  1113  1481  1484    1
  1114  1485  1486    1
  1115  1485  1487    1
  1116  1485  1488    1
  1117  1489  1490    1
  1118  1489  1491    1
  1119  1489  1492    1
  1120  1493  1494    1
  1121  1493  1495    1
  1122  1493  1496    1
  1123  1497  1498    1
  1124  1497  1499    1
  1125  1497  1500    1
  1126  1501  1502    1
  1127  1501  1503    1
  1128  1501  1504    1
  1129  1505  1506    1
  1130  1505  1507    1
  1131  1505  1508    1
  1132  1509  1510    1
  1133  1509  1511    1
  1134  1509  1512    1
  1135  1513  1514    1
  1136  1513  1515    1
  1137  1513  1516    1
  1138  1517  1518    1
  1139  1517  1519    1
  1140  1517  1520    1
  1141  1521  1522    1
  1142  1521  1523    1
  1143  1521  1524    1
  1144  1525  1526    1
  1145  1525  1527    1
  1146  1525  1528    1
  1147  1529  1530    1
  1148  1529  1531    1
  1149  1529  1532    1
  1150  1533  1534    1
  1151  1533  1535    1
  1152  1533  1536    1
  1153  1537  1538    1
  1154  1537  1539    1
  1155  1537  1540    1
  1156  1541  1542    1
  1157  1541  1543    1
  1158  1541  1544    1
  1159  1545  1546    1
  1160  1545  1547    1
  1161  1545  1548    1
  1162  1549  1550    1
  1163  1549  1551    1
  1164  1549  1552    1
  1165  1553  1554    1
  1166  1553  1555    1
  1167  1553  1556    1
  1168  1557  1558    1
  1169  1557  1559    1
  1170  1557  1560    1
  1171  1561  1562    1
  1172  1561  1563    1
  1173  1561  1564    1
  1174  1565  1566    1
  1175  1565  1567    1
  1176  1565  1568    1
  1177  1569  1570    1
  1178  1569  1571    1
  1179  1569  1572    1
  1180  1573  1574    1
  1181  1573  1575    1
  1182  1573  1576    1
  1183  1577  1578    1
  1184  1577  1579    1
  1185  1577  1580    1
  1186  1581  1582    1
  1187  1581  1583    1
  1188  1581  1584    1
  1189  1585  1586    1
  1190  1585  1587    1
  1191  1585  1588    1
  1192  1589  1590    1
  1193  1589  1591    1
  1194  1589  1592    1
  1195  1593  1594    1
  1196  1593  1595    1
  1197  1593  1596    1
  1198  1597  1598    1
  1199  1597  1599    1
  1200  1597  1600    1
  1201  1601  1602    1
  1202  1601  1603    1
  1203  1601  1604    1
  1204  1605  1606    1
  1205  1605  1607    1
  1206  1605  1608    1
  1207  1609  1610    1
  1208  1609  1611    1
  1209  1609  1612    1
  1210  1613  1614    1
  1211  1613  1615    1
  1212  1613  1616    1
  1213  1617  1618    1
  1214  1617  1619    1
  1215  1617  1620    1
  1216  1621  1622    1
  1217  1621  1623    1
  1218  1621  1624    1
  1219  1625  1626    1
  1220  1625  1627    1
  1221  1625  1628    1
  1222  1629  1630    1
  1223  1629  1631    1
  1224  1629  1632    1
  1225  1633  1634    1
  1226  1633  1635    1
  1227  1633  1636    1
  1228  1637  1638    1
  1229  1637  1639    1
  1230  1637  1640    1
  1231  1641  1642    1
  1232  1641  1643    1
  1233  1641  1644    1
  1234  1645  1646    1
  1235  1645  1647    1
  1236  1645  1648    1
  1237  1649  1650    1
  1238  1649  1651    1
  1239  1649  1652    1
  1240  1653  1654    1
  1241  1653  1655    1
  1242  1653  1656    1
  1243  1657  1658    1
  1244  1657  1659    1
  1245  1657  1660    1
  1246  1661  1662    1
  1247  1661  1663    1
  1248  1661  1664    1
  1249  1665  1666    1
  1250  1665  1667    1
  1251  1665  1668    1
  1252  1669  1670    1
  1253  1669  1671    1
  1254  1669  1672    1
  1255  1673  1674    1
  1256  1673  1675    1
  1257  1673  1676    1
  1258  1677  1678    1
  1259  1677  1679    1
  1260  1677  1680    1
  1261  1681  1682    1
  1262  1681  1683    1
  1263  1681  1684    1
  1264  1685  1686    1
  1265  1685  1687    1
  1266  1685  1688    1
  1267  1689  1690    1
  1268  1689  1691    1
  1269  1689  1692    1
  1270  1693  1694    1
  1271  1693  1695    1
  1272  1693  1696    1
  1273  1697  1698    1
  1274  1697  1699    1
  1275  1697  1700    1
  1276  1701  1702    1
  1277  1701  1703    1
  1278  1701  1704    1
  1279  1705  1706    1
  1280  1705  1707    1
  1281  1705  1708    1
  1282  1709  1710    1
  1283  1709  1711    1
  1284  1709  1712    1
  1285  1713  1714    1
  1286  1713  1715    1
  1287  1713  1716    1
  1288  1717  1718    1
  1289  1717  1719    1
  1290  1717  1720    1
  1291  1721  1722    1
  1292  1721  1723    1
  1293  1721  1724    1
  1294  1725  1726    1
  1295  1725  1727    1
  1296  1725  1728    1
  1297  1729  1730    1
  1298  1729  1731    1
  1299  1729  1732    1
  1300  1733  1734    1
  1301  1733  1735    1
  1302  1733  1736    1
  1303  1737  1738    1
  1304  1737  1739    1
  1305  1737  1740    1
  1306  1741  1742    1
  1307  1741  1743    1
  1308  1741  1744    1
  1309  1745  1746    1
  1310  1745  1747    1
  1311  1745  1748    1
  1312  1749  1750    1
  1313  1749  1751    1
  1314  1749  1752    1
  1315  1753  1754    1
  1316  1753  1755    1
  1317  1753  1756    1
  1318  1757  1758    1
  1319  1757  1759    1
  1320  1757  1760    1
  1321  1761  1762    1
  1322  1761  1763    1
  1323  1761  1764    1
  1324  1765  1766    1
  1325  1765  1767    1
  1326  1765  1768    1
  1327  1769  1770    1
  1328  1769  1771    1
  1329  1769  1772    1
  1330  1773  1774    1
  1331  1773  1775    1
  1332  1773  1776    1
  1333  1777  1778    1
  1334  1777  1779    1
  1335  1777  1780    1
  1336  1781  1782    1
  1337  1781  1783    1
  1338  1781  1784    1
  1339  1785  1786    1
  1340  1785  1787    1
  1341  1785  1788    1
  1342  1789  1790    1
  1343  1789  1791    1
  1344  1789  1792    1
  1345  1793  1794    1
  1346  1793  1795    1
  1347  1793  1796    1
  1348  1797  1798    1
  1349  1797  1799    1
  1350  1797  1800    1
  1351  1801  1802    1
  1352  1801  1803    1
  1353  1801  1804    1
  1354  1805  1806    1
  1355  1805  1807    1
  1356  1805  1808    1
  1357  1809  1810    1
  1358  1809  1811    1
  1359  1809  1812    1
  1360  1813  1814    1
  1361  1813  1815    1
  1362  1813  1816    1
  1363  1817  1818    1
  1364  1817  1819    1
  1365  1817  1820    1
  1366  1821  1822    1
  1367  1821  1823    1
  1368  1821  1824    1
  1369  1825  1826    1
  1370  1825  1827    1
  1371  1825  1828    1
  1372  1829  1830    1
  1373  1829  1831    1
  1374  1829  1832    1
  1375  1833  1834    1
  1376  1833  1835    1
  1377  1833  1836    1
  1378  1837  1838    1
  1379  1837  1839    1
  1380  1837  1840    1
  1381  1841  1842    1
  1382  1841  1843    1
  1383  1841  1844    1
  1384  1845  1846    1
  1385  1845  1847    1
  1386  1845  1848    1
  1387  1849  1850    1
  1388  1849  1851    1
  1389  1849  1852    1
  1390  1853  1854    1
  1391  1853  1855    1
  1392  1853  1856    1
  1393  1857  1858    1
  1394  1857  1859    1
  1395  1857  1860    1
  1396  1861  1862    1
  1397  1861  1863    1
  1398  1861  1864    1
  1399  1865  1866    1
  1400  1865  1867    1
  1401  1865  1868    1
  1402  1869  1870    1
  1403  1869  1871    1
  1404  1869  1872    1
  1405  1873  1874    1
  1406  1873  1875    1
  1407  1873  1876    1
  1408  1877  1878    1
  1409  1877  1879    1
  1410  1877  1880    1
  1411  1881  1882    1
  1412  1881  1883    1
  1413  1881  1884    1
  1414  1885  1886    1
  1415  1885  1887    1
  1416  1885  1888    1
  1417  1889  1890    1
  1418  1889  1891    1
  1419  1889  1892    1
  1420  1893  1894    1
  1421  1893  1895    1
  1422  1893  1896    1
  1423  1897  1898    1
  1424  1897  1899    1
  1425  1897  1900    1
  1426  1901  1902    1
  1427  1901  1903    1
  1428  1901  1904    1
  1429  1905  1906    1
  1430  1905  1907    1
  1431  1905  1908    1
  1432  1909  1910    1
  1433  1909  1911    1
  1434  1909  1912    1
  1435  1913  1914    1
  1436  1913  1915    1
  1437  1913  1916    1
  1438  1917  1918    1
  1439  1917  1919    1
  1440  1917  1920    1
  1441  1921  1922    1
  1442  1921  1923    1
  1443  1921  1924    1
  1444  1925  1926    1
  1445  1925  1927    1
  1446  1925  1928    1
  1447  1929  1930    1
  1448  1929  1931    1
  1449  1929  1932    1
  1450  1933  1934    1
  1451  1933  1935    1
  1452  1933  1936    1
  1453  1937  1938    1
  1454  1937  1939    1
  1455  1937  1940    1
  1456  1941  1942    1
  1457  1941  1943    1
  1458  1941  1944    1
  1459  1945  1946    1
  1460  1945  1947    1
  1461  1945  1948    1
  1462  1949  1950    1
  1463  1949  1951    1
  1464  1949  1952    1
  1465  1953  1954    1
  1466  1953  1955    1
  1467  1953  1956    1
  1468  1957  1958    1
  1469  1957  1959    1
  1470  1957  1960    1
  1471  1961  1962    1
  1472  1961  1963    1
  1473  1961  1964    1
  1474  1965  1966    1
  1475  1965  1967    1
  1476  1965  1968    1
  1477  1969  1970    1
  1478  1969  1971    1
  1479  1969  1972    1
  1480  1973  1974    1
  1481  1973  1975    1
  1482  1973  1976    1
  1483  1977  1978    1
  1484  1977  1979    1
  1485  1977  1980    1
  1486  1981  1982    1
  1487  1981  1983    1
  1488  1981  1984    1
  1489  1985  1986    1
  1490  1985  1987    1
  1491  1985  1988    1
  1492  1989  1990    1
  1493  1989  1991    1
  1494  1989  1992    1
  1495  1993  1994    1
  1496  1993  1995    1
  1497  1993  1996    1
  1498  1997  1998    1
  1499  1997  1999    1
  1500  1997  2000    1
  1501  2001  2002    1
  1502  2001  2003    1
  1503  2001  2004    1
  1504  2005  2006    1
  1505  2005  2007    1
  1506  2005  2008    1
  1507  2009  2010    1
  1508  2009  2011    1
  1509  2009  2012    1
  1510  2013  2014    1
  1511  2013  2015    1
  1512  2013  2016    1
  1513  2017  2018    1
  1514  2017  2019    1
  1515  2017  2020    1
  1516  2021  2022    1
  1517  2021  2023    1
  1518  2021  2024    1
  1519  2025  2026    1
  1520  2025  2027    1
  1521  2025  2028    1
  1522  2029  2030    1
  1523  2029  2031    1
  1524  2029  2032    1
  1525  2033  2034    1
  1526  2033  2035    1
  1527  2033  2036    1
  1528  2037  2038    1
  1529  2037  2039    1
  1530  2037  2040    1
  1531  2041  2042    1
  1532  2041  2043    1
  1533  2041  2044    1
  1534  2045  2046    1
  1535  2045  2047    1
  1536  2045  2048    1
  1537  2049  2050    1
  1538  2049  2051    1
  1539  2049  2052    1
  1540  2053  2054    1
  1541  2053  2055    1
  1542  2053  2056    1
  1543  2057  2058    1
  1544  2057  2059    1
  1545  2057  2060    1
  1546  2061  2062    1
  1547  2061  2063    1
  1548  2061  2064    1
  1549  2065  2066    1
  1550  2065  2067    1
  1551  2065  2068    1
  1552  2069  2070    1
  1553  2069  2071    1
  1554  2069  2072    1
  1555  2073  2074    1
  1556  2073  2075    1
  1557  2073  2076    1
  1558  2077  2078    1
  1559  2077  2079    1
  1560  2077  2080    1
  1561  2081  2082    1
  1562  2081  2083    1
  1563  2081  2084    1
  1564  2085  2086    1
  1565  2085  2087    1
  1566  2085  2088    1
  1567  2089  2090    1
  1568  2089  2091    1
  1569  2089  2092    1
  1570  2093  2094    1
  1571  2093  2095    1
  1572  2093  2096    1
  1573  2097  2098    1
  1574  2097  2099    1
  1575  2097  2100    1
  1576  2101  2102    1
  1577  2101  2103    1
  1578  2101  2104    1
  1579  2105  2106    1
  1580  2105  2107    1
  1581  2105  2108    1
  1582  2109  2110    1
  1583  2109  2111    1
  1584  2109  2112    1
  1585  2113  2114    1
  1586  2113  2115    1
  1587  2113  2116    1
  1588  2117  2118    1
  1589  2117  2119    1
  1590  2117  2120    1
  1591  2121  2122    1
  1592  2121  2123    1
  1593  2121  2124    1
  1594  2125  2126    1
  1595  2125  2127    1
  1596  2125  2128    1
  1597  2129  2130    1
  1598  2129  2131    1
  1599  2129  2132    1
  1600  2133  2134    1
  1601  2133  2135    1
  1602  2133  2136    1
  1603  2137  2138    1
  1604  2137  2139    1
  1605  2137  2140    1
  1606  2141  2142    1
  1607  2141  2143    1
  1608  2141  2144    1
  1609  2145  2146    1
  1610  2145  2147    1
  1611  2145  2148    1
  1612  2149  2150    1
  1613  2149  2151    1
  1614  2149  2152    1
  1615  2153  2154    1
  1616  2153  2155    1
  1617  2153  2156    1
  1618  2157  2158    1
  1619  2157  2159    1
  1620  2157  2160    1
  1621  2161  2162    1
  1622  2161  2163    1
  1623  2161  2164    1
  1624  2165  2166    1
  1625  2165  2167    1
  1626  2165  2168    1
  1627  2169  2170    1
  1628  2169  2171    1
  1629  2169  2172    1
  1630  2173  2174    1
  1631  2173  2175    1
  1632  2173  2176    1
  1633  2177  2178    1
  1634  2177  2179    1
  1635  2177  2180    1
  1636  2181  2182    1
  1637  2181  2183    1
  1638  2181  2184    1
  1639  2185  2186    1
  1640  2185  2187    1
  1641  2185  2188    1
  1642  2189  2190    1
  1643  2189  2191    1
  1644  2189  2192    1
  1645  2193  2194    1
  1646  2193  2195    1
  1647  2193  2196    1
  1648  2197  2198    1
  1649  2197  2199    1
  1650  2197  2200    1
  1651  2201  2202    1
  1652  2201  2203    1
  1653  2201  2204    1
  1654  2205  2206    1
  1655  2205  2207    1
  1656  2205  2208    1
  1657  2209  2210    1
  1658  2209  2211    1
  1659  2209  2212    1
  1660  2213  2214    1
  1661  2213  2215    1
  1662  2213  2216    1
  1663  2217  2218    1
  1664  2217  2219    1
  1665  2217  2220    1
  1666  2221  2222    1
  1667  2221  2223    1
  1668  2221  2224    1
  1669  2225  2226    1
  1670  2225  2227    1
  1671  2225  2228    1
  1672  2229  2230    1
  1673  2229  2231    1
  1674  2229  2232    1
  1675  2233  2234    1
  1676  2233  2235    1
  1677  2233  2236    1
  1678  2237  2238    1
  1679  2237  2239    1
  1680  2237  2240    1
  1681  2241  2242    1
  1682  2241  2243    1
  1683  2241  2244    1
  1684  2245  2246    1
  1685  2245  2247    1
  1686  2245  2248    1
  1687  2249  2250    1
  1688  2249  2251    1
  1689  2249  2252    1
  1690  2253  2254    1
  1691  2253  2255    1
  1692  2253  2256    1
  1693  2257  2258    1
  1694  2257  2259    1
  1695  2257  2260    1
  1696  2261  2262    1
  1697  2261  2263    1
  1698  2261  2264    1
  1699  2265  2266    1
  1700  2265  2267    1
  1701  2265  2268    1
  1702  2269  2270    1
  1703  2269  2271    1
  1704  2269  2272    1
  1705  2273  2274    1
  1706  2273  2275    1
  1707  2273  2276    1
  1708  2277  2278    1
  1709  2277  2279    1
  1710  2277  2280    1
  1711  2281  2282    1
  1712  2281  2283    1
  1713  2281  2284    1
  1714  2285  2286    1
  1715  2285  2287    1
  1716  2285  2288    1
  1717  2289  2290    1
  1718  2289  2291    1
  1719  2289  2292    1
  1720  2293  2294    1
  1721  2293  2295    1
  1722  2293  2296    1
  1723  2297  2298    1
  1724  2297  2299    1
  1725  2297  2300    1
  1726  2301  2302    1
  1727  2301  2303    1
  1728  2301  2304    1
  1729  2305  2306    1
  1730  2305  2307    1
  1731  2305  2308    1
  1732  2309  2310    1
  1733  2309  2311    1
  1734  2309  2312    1
  1735  2313  2314    1
  1736  2313  2315    1
  1737  2313  2316    1
  1738  2317  2318    1
  1739  2317  2319    1
  1740  2317  2320    1
  1741  2321  2322    1
  1742  2321  2323    1
  1743  2321  2324    1
  1744  2325  2326    1
  1745  2325  2327    1
  1746  2325  2328    1
  1747  2329  2330    1
  1748  2329  2331    1
  1749  2329  2332    1
  1750  2333  2334    1
  1751  2333  2335    1
  1752  2333  2336    1
  1753  2337  2338    1
  1754  2337  2339    1
  1755  2337  2340    1
  1756  2341  2342    1
  1757  2341  2343    1
  1758  2341  2344    1
  1759  2345  2346    1
  1760  2345  2347    1
  1761  2345  2348    1
  1762  2349  2350    1
  1763  2349  2351    1
  1764  2349  2352    1
  1765  2353  2354    1
  1766  2353  2355    1
  1767  2353  2356    1
  1768  2357  2358    1
  1769  2357  2359    1
  1770  2357  2360    1
  1771  2361  2362    1
  1772  2361  2363    1
  1773  2361  2364    1
  1774  2365  2366    1
  1775  2365  2367    1
  1776  2365  2368    1
  1777  2369  2370    1
  1778  2369  2371    1
  1779  2369  2372    1
  1780  2373  2374    1
  1781  2373  2375    1
  1782  2373  2376    1
  1783  2377  2378    1
  1784  2377  2379    1
  1785  2377  2380    1
  1786  2381  2382    1
  1787  2381  2383    1
  1788  2381  2384    1
  1789  2385  2386    1
  1790  2385  2387    1
  1791  2385  2388    1
  1792  2389  2390    1
  1793  2389  2391    1
  1794  2389  2392    1
  1795  2393  2394    1
  1796  2393  2395    1
  1797  2393  2396    1
  1798  2397  2398    1
  1799  2397  2399    1
  1800  2397  2400    1
  1801  2401  2402    1
  1802  2401  2403    1
  1803  2401  2404    1
  1804  2405  2406    1
  1805  2405  2407    1
  1806  2405  2408    1
  1807  2409  2410    1
  1808  2409  2411    1
  1809  2409  2412    1
  1810  2413  2414    1
  1811  2413  2415    1
  1812  2413  2416    1
  1813  2417  2418    1
  1814  2417  2419    1
  1815  2417  2420    1
  1816  2421  2422    1
  1817  2421  2423    1
  1818  2421  2424    1
  1819  2425  2426    1
  1820  2425  2427    1
  1821  2425  2428    1
  1822  2429  2430    1
  1823  2429  2431    1
  1824  2429  2432    1
  1825  2433  2434    1
  1826  2433  2435    1
  1827  2433  2436    1
  1828  2437  2438    1
  1829  2437  2439    1
  1830  2437  2440    1
  1831  2441  2442    1
  1832  2441  2443    1
  1833  2441  2444    1
  1834  2445  2446    1
  1835  2445  2447    1
  1836  2445  2448    1
  1837  2449  2450    1
  1838  2449  2451    1
  1839  2449  2452    1
  1840  2453  2454    1
  1841  2453  2455    1
  1842  2453  2456    1
  1843  2457  2458    1
  1844  2457  2459    1
  1845  2457  2460    1
  1846  2461  2462    1
  1847  2461  2463    1
  1848  2461  2464    1
  1849  2465  2466    1
  1850  2465  2467    1
  1851  2465  2468    1
  1852  2469  2470    1
  1853  2469  2471    1
  1854  2469  2472    1
  1855  2473  2474    1
  1856  2473  2475    1
  1857  2473  2476    1
  1858  2477  2478    1
  1859  2477  2479    1
  1860  2477  2480    1
  1861  2481  2482    1
  1862  2481  2483    1
  1863  2481  2484    1
  1864  2485  2486    1
  1865  2485  2487    1
  1866  2485  2488    1
  1867  2489  2490    1
  1868  2489  2491    1
  1869  2489  2492    1
  1870  2493  2494    1
  1871  2493  2495    1
  1872  2493  2496    1
  1873  2497  2498    1
  1874  2497  2499    1
  1875  2497  2500    1
  1876  2501  2502    1
  1877  2501  2503    1
  1878  2501  2504    1
  1879  2505  2506    1
  1880  2505  2507    1
  1881  2505  2508    1
  1882  2509  2510    1
  1883  2509  2511    1
  1884  2509  2512    1
  1885  2513  2514    1
  1886  2513  2515    1
  1887  2513  2516    1
  1888  2517  2518    1
  1889  2517  2519    1
  1890  2517  2520    1
  1891  2521  2522    1
  1892  2521  2523    1
  1893  2521  2524    1
  1894  2525  2526    1
  1895  2525  2527    1
  1896  2525  2528    1
  1897  2529  2530    1
  1898  2529  2531    1
  1899  2529  2532    1
  1900  2533  2534    1
  1901  2533  2535    1
  1902  2533  2536    1
  1903  2537  2538    1
  1904  2537  2539    1
  1905  2537  2540    1
  1906  2541  2542    1
  1907  2541  2543    1
  1908  2541  2544    1
  1909  2545  2546    1
  1910  2545  2547    1
  1911  2545  2548    1
  1912  2549  2550    1
  1913  2549  2551    1
  1914  2549  2552    1
  1915  2553  2554    1
  1916  2553  2555    1
  1917  2553  2556    1
  1918  2557  2558    1
  1919  2557  2559    1
  1920  2557  2560    1
  1921  2561  2562    1
  1922  2561  2563    1
  1923  2561  2564    1
  1924  2565  2566    1
  1925  2565  2567    1
  1926  2565  2568    1
  1927  2569  2570    1
  1928  2569  2571    1
  1929  2569  2572    1
  1930  2573  2574    1
  1931  2573  2575    1
  1932  2573  2576    1
  1933  2577  2578    1
  1934  2577  2579    1
  1935  2577  2580    1
  1936  2581  2582    1
  1937  2581  2583    1
  1938  2581  2584    1
  1939  2585  2586    1
  1940  2585  2587    1
  1941  2585  2588    1
  1942  2589  2590    1
  1943  2589  2591    1
  1944  2589  2592    1
  1945  2593  2594    1
  1946  2593  2595    1
  1947  2593  2596    1
  1948  2597  2598    1
  1949  2597  2599    1
  1950  2597  2600    1
  1951  2601  2602    1
  1952  2601  2603    1
  1953  2601  2604    1
  1954  2605  2606    1
  1955  2605  2607    1
  1956  2605  2608    1
  1957  2609  2610    1
  1958  2609  2611    1
  1959  2609  2612    1
  1960  2613  2614    1
  1961  2613  2615    1
  1962  2613  2616    1
  1963  2617  2618    1
  1964  2617  2619    1
  1965  2617  2620    1
  1966  2621  2622    1
  1967  2621  2623    1
  1968  2621  2624    1
  1969  2625  2626    1
  1970  2625  2627    1
  1971  2625  2628    1
  1972  2629  2630    1
  1973  2629  2631    1
  1974  2629  2632    1
  1975  2633  2634    1
  1976  2633  2635    1
  1977  2633  2636    1
  1978  2637  2638    1
  1979  2637  2639    1
  1980  2637  2640    1
  1981  2641  2642    1
  1982  2641  2643    1
  1983  2641  2644    1
  1984  2645  2646    1
  1985  2645  2647    1
  1986  2645  2648    1
  1987  2649  2650    1
  1988  2649  2651    1
  1989  2649  2652    1
  1990  2653  2654    1
  1991  2653  2655    1
  1992  2653  2656    1
  1993  2657  2658    1
  1994  2657  2659    1
  1995  2657  2660    1
  1996  2661  2662    1
  1997  2661  2663    1
  1998  2661  2664    1
  1999  2665  2666    1
  2000  2665  2667    1
  2001  2665  2668    1
  2002  2669  2670    1
  2003  2669  2671    1
  2004  2669  2672    1
  2005  2673  2674    1
  2006  2673  2675    1
  2007  2673  2676    1
  2008  2677  2678    1
  2009  2677  2679    1
  2010  2677  2680    1
  2011  2681  2682    1
  2012  2681  2683    1
  2013  2681  2684    1
  2014  2685  2686    1
  2015  2685  2687    1
  2016  2685  2688    1
  2017  2689  2690    1
  2018  2689  2691    1
  2019  2689  2692    1
  2020  2693  2694    1
  2021  2693  2695    1
  2022  2693  2696    1
  2023  2697  2698    1
  2024  2697  2699    1
  2025  2697  2700    1
  2026  2701  2702    1
  2027  2701  2703    1
  2028  2701  2704    1
  2029  2705  2706    1
  2030  2705  2707    1
  2031  2705  2708    1
  2032  2709  2710    1
  2033  2709  2711    1
  2034  2709  2712    1
  2035  2713  2714    1
  2036  2713  2715    1
  2037  2713  2716    1
  2038  2717  2718    1
  2039  2717  2719    1
  2040  2717  2720    1
  2041  2721  2722    1
  2042  2721  2723    1
  2043  2721  2724    1
  2044  2725  2726    1
  2045  2725  2727    1
  2046  2725  2728    1
  2047  2729  2730    1
  2048  2729  2731    1
  2049  2729  2732    1
  2050  2733  2734    1
  2051  2733  2735    1
  2052  2733  2736    1
  2053  2737  2738    1
  2054  2737  2739    1
  2055  2737  2740    1
  2056  2741  2742    1
  2057  2741  2743    1
  2058  2741  2744    1
  2059  2745  2746    1
  2060  2745  2747    1
  2061  2745  2748    1
  2062  2749  2750    1
  2063  2749  2751    1
  2064  2749  2752    1
  2065  2753  2754    1
  2066  2753  2755    1
  2067  2753  2756    1
  2068  2757  2758    1
  2069  2757  2759    1
  2070  2757  2760    1
  2071  2761  2762    1
  2072  2761  2763    1
  2073  2761  2764    1
  2074  2765  2766    1
  2075  2765  2767    1
  2076  2765  2768    1
  2077  2769  2770    1
  2078  2769  2771    1
  2079  2769  2772    1
  2080  2773  2774    1
  2081  2773  2775    1
  2082  2773  2776    1
  2083  2777  2778    1
  2084  2777  2779    1
  2085  2777  2780    1
  2086  2781  2782    1
  2087  2781  2783    1
  2088  2781  2784    1
  2089  2785  2786    1
  2090  2785  2787    1
  2091  2785  2788    1
  2092  2789  2790    1
  2093  2789  2791    1
  2094  2789  2792    1
  2095  2793  2794    1
  2096  2793  2795    1
  2097  2793  2796    1
  2098  2797  2798    1
  2099  2797  2799    1
  2100  2797  2800    1
  2101  2801  2802    1
  2102  2801  2803    1
  2103  2801  2804    1
  2104  2805  2806    1
  2105  2805  2807    1
  2106  2805  2808    1
  2107  2809  2810    1
  2108  2809  2811    1
  2109  2809  2812    1
  2110  2813  2814    1
  2111  2813  2815    1
  2112  2813  2816    1
  2113  2817  2818    1
  2114  2817  2819    1
  2115  2817  2820    1
  2116  2821  2822    1
  2117  2821  2823    1
  2118  2821  2824    1
  2119  2825  2826    1
  2120  2825  2827    1
  2121  2825  2828    1
  2122  2829  2830    1
  2123  2829  2831    1
  2124  2829  2832    1
  2125  2833  2834    1
  2126  2833  2835    1
  2127  2833  2836    1
  2128  2837  2838    1
  2129  2837  2839    1
  2130  2837  2840    1
  2131  2841  2842    1
  2132  2841  2843    1
  2133  2841  2844    1
  2134  2845  2846    1
  2135  2845  2847    1
  2136  2845  2848    1
  2137  2849  2850    1
  2138  2849  2851    1
  2139  2849  2852    1
  2140  2853  2854    1
  2141  2853  2855    1
  2142  2853  2856    1
  2143  2857  2858    1
  2144  2857  2859    1
  2145  2857  2860    1
  2146  2861  2862    1
  2147  2861  2863    1
  2148  2861  2864    1
  2149  2865  2866    1
  2150  2865  2867    1
  2151  2865  2868    1
  2152  2869  2870    1
  2153  2869  2871    1
  2154  2869  2872    1
  2155  2873  2874    1
  2156  2873  2875    1
  2157  2873  2876    1
  2158  2877  2878    1
  2159  2877  2879    1
  2160  2877  2880    1
  2161  2881  2882    1
  2162  2881  2883    1
  2163  2881  2884    1
  2164  2885  2886    1
  2165  2885  2887    1
  2166  2885  2888    1
  2167  2889  2890    1
  2168  2889  2891    1
  2169  2889  2892    1
  2170  2893  2894    1
  2171  2893  2895    1
  2172  2893  2896    1
  2173  2897  2898    1
  2174  2897  2899    1
  2175  2897  2900    1
  2176  2901  2902    1
  2177  2901  2903    1
  2178  2901  2904    1
  2179  2905  2906    1
  2180  2905  2907    1
  2181  2905  2908    1
  2182  2909  2910    1
  2183  2909  2911    1
  2184  2909  2912    1
  2185  2913  2914    1
  2186  2913  2915    1
  2187  2913  2916    1
  2188  2917  2918    1
  2189  2917  2919    1
  2190  2917  2920    1
  2191  2921  2922    1
  2192  2921  2923    1
  2193  2921  2924    1
  2194  2925  2926    1
  2195  2925  2927    1
  2196  2925  2928    1
  2197  2929  2930    1
  2198  2929  2931    1
  2199  2929  2932    1
  2200  2933  2934    1
  2201  2933  2935    1
  2202  2933  2936    1
  2203  2937  2938    1
  2204  2937  2939    1
  2205  2937  2940    1
  2206  2941  2942    1
  2207  2941  2943    1
  2208  2941  2944    1
  2209  2945  2946    1
  2210  2945  2947    1
  2211  2945  2948    1
  2212  2949  2950    1
  2213  2949  2951    1
  2214  2949  2952    1
  2215  2953  2954    1
  2216  2953  2955    1
  2217  2953  2956    1
  2218  2957  2958    1
  2219  2957  2959    1
  2220  2957  2960    1
  2221  2961  2962    1
  2222  2961  2963    1
  2223  2961  2964    1
  2224  2965  2966    1
  2225  2965  2967    1
  2226  2965  2968    1
  2227  2969  2970    1
  2228  2969  2971    1
  2229  2969  2972    1
  2230  2973  2974    1
  2231  2973  2975    1
  2232  2973  2976    1
  2233  2977  2978    1
  2234  2977  2979    1
  2235  2977  2980    1
  2236  2981  2982    1
  2237  2981  2983    1
  2238  2981  2984    1
  2239  2985  2986    1
  2240  2985  2987    1
  2241  2985  2988    1
  2242  2989  2990    1
  2243  2989  2991    1
  2244  2989  2992    1
  2245  2993  2994    1
  2246  2993  2995    1
  2247  2993  2996    1
  2248  2997  2998    1
  2249  2997  2999    1
  2250  2997  3000    1
  2251  3001  3002    1
  2252  3001  3003    1
  2253  3001  3004    1
  2254  3005  3006    1
  2255  3005  3007    1
  2256  3005  3008    1
  2257  3009  3010    1
  2258  3009  3011    1
  2259  3009  3012    1
  2260  3013  3014    1
  2261  3013  3015    1
  2262  3013  3016    1
  2263  3017  3018    1
  2264  3017  3019    1
  2265  3017  3020    1
  2266  3021  3022    1
  2267  3021  3023    1
  2268  3021  3024    1
  2269  3025  3026    1
  2270  3025  3027    1
  2271  3025  3028    1
  2272  3029  3030    1
  2273  3029  3031    1
  2274  3029  3032    1
  2275  3033  3034    1
  2276  3033  3035    1
  2277  3033  3036    1
  2278  3037  3038    1
  2279  3037  3039    1
  2280  3037  3040    1
  2281  3041  3042    1
  2282  3041  3043    1
  2283  3041  3044    1
  2284  3045  3046    1
  2285  3045  3047    1
  2286  3045  3048    1
  2287  3049  3050    1
  2288  3049  3051    1
  2289  3049  3052    1
  2290  3053  3054    1
  2291  3053  3055    1
  2292  3053  3056    1
  2293  3057  3058    1
  2294  3057  3059    1
  2295  3057  3060    1
  2296  3061  3062    1
  2297  3061  3063    1
  2298  3061  3064    1
  2299  3065  3066    1
  2300  3065  3067    1
  2301  3065  3068    1
  2302  3069  3070    1
  2303  3069  3071    1
  2304  3069  3072    1
  2305  3073  3074    1
  2306  3073  3075    1
  2307  3073  3076    1
  2308  3077  3078    1
  2309  3077  3079    1
  2310  3077  3080    1
  2311  3081  3082    1
  2312  3081  3083    1
  2313  3081  3084    1
  2314  3085  3086    1
  2315  3085  3087    1
  2316  3085  3088    1
  2317  3089  3090    1
  2318  3089  3091    1
  2319  3089  3092    1
  2320  3093  3094    1
  2321  3093  3095    1
  2322  3093  3096    1
  2323  3097  3098    1
  2324  3097  3099    1
  2325  3097  3100    1
  2326  3101  3102    1
  2327  3101  3103    1
  2328  3101  3104    1
  2329  3105  3106    1
  2330  3105  3107    1
  2331  3105  3108    1
  2332  3109  3110    1
  2333  3109  3111    1
  2334  3109  3112    1
  2335  3113  3114    1
  2336  3113  3115    1
  2337  3113  3116    1
  2338  3117  3118    1
  2339  3117  3119    1
  2340  3117  3120    1
  2341  3121  3122    1
  2342  3121  3123    1
  2343  3121  3124    1
  2344  3125  3126    1
  2345  3125  3127    1
  2346  3125  3128    1
  2347  3129  3130    1
  2348  3129  3131    1
  2349  3129  3132    1
  2350  3133  3134    1
  2351  3133  3135    1
  2352  3133  3136    1
  2353  3137  3138    1
  2354  3137  3139    1
  2355  3137  3140    1
  2356  3141  3142    1
  2357  3141  3143    1
  2358  3141  3144    1
  2359  3145  3146    1
  2360  3145  3147    1
  2361  3145  3148    1
  2362  3149  3150    1
  2363  3149  3151    1
  2364  3149  3152    1
  2365  3153  3154    1
  2366  3153  3155    1
  2367  3153  3156    1
  2368  3157  3158    1
  2369  3157  3159    1
  2370  3157  3160    1
  2371  3161  3162    1
  2372  3161  3163    1
  2373  3161  3164    1
  2374  3165  3166    1
  2375  3165  3167    1
  2376  3165  3168    1
  2377  3169  3170    1
  2378  3169  3171    1
  2379  3169  3172    1
  2380  3173  3174    1
  2381  3173  3175    1
  2382  3173  3176    1
  2383  3177  3178    1
  2384  3177  3179    1
  2385  3177  3180    1
  2386  3181  3182    1
  2387  3181  3183    1
  2388  3181  3184    1
  2389  3185  3186    1
  2390  3185  3187    1
  2391  3185  3188    1
  2392  3189  3190    1
  2393  3189  3191    1
  2394  3189  3192    1
  2395  3193  3194    1
  2396  3193  3195    1
  2397  3193  3196    1
  2398  3197  3198    1
  2399  3197  3199    1
  2400  3197  3200    1
  2401  3201  3202    1
  2402  3201  3203    1
  2403  3201  3204    1
  2404  3205  3206    1
  2405  3205  3207    1
  2406  3205  3208    1
  2407  3209  3210    1
  2408  3209  3211    1
  2409  3209  3212    1
  2410  3213  3214    1
  2411  3213  3215    1
  2412  3213  3216    1
  2413  3217  3218    1
  2414  3217  3219    1
  2415  3217  3220    1
  2416  3221  3222    1
  2417  3221  3223    1
  2418  3221  3224    1
  2419  3225  3226    1
  2420  3225  3227    1
  2421  3225  3228    1
  2422  3229  3230    1
  2423  3229  3231    1
  2424  3229  3232    1
  2425  3233  3234    1
  2426  3233  3235    1
  2427  3233  3236    1
  2428  3237  3238    1
  2429  3237  3239    1
  2430  3237  3240    1
  2431  3241  3242    1
  2432  3241  3243    1
  2433  3241  3244    1
  2434  3245  3246    1
  2435  3245  3247    1
  2436  3245  3248    1
  2437  3249  3250    1
  2438  3249  3251    1
  2439  3249  3252    1
  2440  3253  3254    1
  2441  3253  3255    1
  2442  3253  3256    1
  2443  3257  3258    1
  2444  3257  3259    1
  2445  3257  3260    1
  2446  3261  3262    1
  2447  3261  3263    1
  2448  3261  3264    1
  2449  3265  3266    1
  2450  3265  3267    1
  2451  3265  3268    1
  2452  3269  3270    1
  2453  3269  3271    1
  2454  3269  3272    1
  2455  3273  3274    1
  2456  3273  3275    1
  2457  3273  3276    1
  2458  3277  3278    1
  2459  3277  3279    1
  2460  3277  3280    1
  2461  3281  3282    1
  2462  3281  3283    1
  2463  3281  3284    1
  2464  3285  3286    1
  2465  3285  3287    1
  2466  3285  3288    1
  2467  3289  3290    1
  2468  3289  3291    1
  2469  3289  3292    1
  2470  3293  3294    1
  2471  3293  3295    1
  2472  3293  3296    1
  2473  3297  3298    1
  2474  3297  3299    1
  2475  3297  3300    1
  2476  3301  3302    1
  2477  3301  3303    1
  2478  3301  3304    1
  2479  3305  3306    1
  2480  3305  3307    1
  2481  3305  3308    1
  2482  3309  3310    1
  2483  3309  3311    1
  2484  3309  3312    1
  2485  3313  3314    1
  2486  3313  3315    1
  2487  3313  3316    1
  2488  3317  3318    1
  2489  3317  3319    1
  2490  3317  3320    1
  2491  3321  3322    1
  2492  3321  3323    1
  2493  3321  3324    1
  2494  3325  3326    1
  2495  3325  3327    1
  2496  3325  3328    1
  2497  3329  3330    1
  2498  3329  3331    1
  2499  3329  3332    1
  2500  3333  3334    1
  2501  3333  3335    1
  2502  3333  3336    1
  2503  3337  3338    1
  2504  3337  3339    1
  2505  3337  3340    1
  2506  3341  3342    1
  2507  3341  3343    1
  2508  3341  3344    1
  2509  3345  3346    1
  2510  3345  3347    1
  2511  3345  3348    1
  2512  3349  3350    1
  2513  3349  3351    1
  2514  3349  3352    1
  2515  3353  3354    1
  2516  3353  3355    1
  2517  3353  3356    1
  2518  3357  3358    1
  2519  3357  3359    1
  2520  3357  3360    1
  2521  3361  3362    1
  2522  3361  3363    1
  2523  3361  3364    1
  2524  3365  3366    1
  2525  3365  3367    1
  2526  3365  3368    1
  2527  3369  3370    1
  2528  3369  3371    1
  2529  3369  3372    1
  2530  3373  3374    1
  2531  3373  3375    1
  2532  3373  3376    1
  2533  3377  3378    1
  2534  3377  3379    1
  2535  3377  3380    1
  2536  3381  3382    1
  2537  3381  3383    1
  2538  3381  3384    1
  2539  3385  3386    1
  2540  3385  3387    1
  2541  3385  3388    1
  2542  3389  3390    1
  2543  3389  3391    1
  2544  3389  3392    1
  2545  3393  3394    1
  2546  3393  3395    1
  2547  3393  3396    1
  2548  3397  3398    1
  2549  3397  3399    1
  2550  3397  3400    1
  2551  3401  3402    1
  2552  3401  3403    1
  2553  3401  3404    1
  2554  3405  3406    1
  2555  3405  3407    1
  2556  3405  3408    1
  2557  3409  3410    1
  2558  3409  3411    1
  2559  3409  3412    1
  2560  3413  3414    1
  2561  3413  3415    1
  2562  3413  3416    1
  2563  3417  3418    1
  2564  3417  3419    1
  2565  3417  3420    1
  2566  3421  3422    1
  2567  3421  3423    1
  2568  3421  3424    1
  2569  3425  3426    1
  2570  3425  3427    1
  2571  3425  3428    1
  2572  3429  3430    1
  2573  3429  3431    1
  2574  3429  3432    1
  2575  3433  3434    1
  2576  3433  3435    1
  2577  3433  3436    1
  2578  3437  3438    1
  2579  3437  3439    1
  2580  3437  3440    1
  2581  3441  3442    1
  2582  3441  3443    1
  2583  3441  3444    1
  2584  3445  3446    1
  2585  3445  3447    1
  2586  3445  3448    1
  2587  3449  3450    1
  2588  3449  3451    1
  2589  3449  3452    1
  2590  3453  3454    1
  2591  3453  3455    1
  2592  3453  3456    1
  2593  3457  3458    1
  2594  3457  3459    1
  2595  3457  3460    1
  2596  3461  3462    1
  2597  3461  3463    1
  2598  3461  3464    1
  2599  3465  3466    1
  2600  3465  3467    1
  2601  3465  3468    1
  2602  3469  3470    1
  2603  3469  3471    1
  2604  3469  3472    1
  2605  3473  3474    1
  2606  3473  3475    1
  2607  3473  3476    1
  2608  3477  3478    1
  2609  3477  3479    1
  2610  3477  3480    1
  2611  3481  3482    1
  2612  3481  3483    1
  2613  3481  3484    1
  2614  3485  3486    1
  2615  3485  3487    1
  2616  3485  3488    1
  2617  3489  3490    1
  2618  3489  3491    1
  2619  3489  3492    1
  2620  3493  3494    1
  2621  3493  3495    1
  2622  3493  3496    1
  2623  3497  3498    1
  2624  3497  3499    1
  2625  3497  3500    1
  2626  3501  3502    1
  2627  3501  3503    1
  2628  3501  3504    1
  2629  3505  3506    1
  2630  3505  3507    1
  2631  3505  3508    1
  2632  3509  3510    1
  2633  3509  3511    1
  2634  3509  3512    1
  2635  3513  3514    1
  2636  3513  3515    1
  2637  3513  3516    1
  2638  3517  3518    1
  2639  3517  3519    1
  2640  3517  3520    1
  2641  3521  3522    1
  2642  3521  3523    1
  2643  3521  3524    1
  2644  3525  3526    1
  2645  3525  3527    1
  2646  3525  3528    1
  2647  3529  3530    1
  2648  3529  3531    1
  2649  3529  3532    1
  2650  3533  3534    1
  2651  3533  3535    1
  2652  3533  3536    1
  2653  3537  3538    1
  2654  3537  3539    1
  2655  3537  3540    1
  2656  3541  3542    1
  2657  3541  3543    1
  2658  3541  3544    1
  2659  3545  3546    1
  2660  3545  3547    1
  2661  3545  3548    1
  2662  3549  3550    1
  2663  3549  3551    1
  2664  3549  3552    1
  2665  3553  3554    1
  2666  3553  3555    1
  2667  3553  3556    1
  2668  3557  3558    1
  2669  3557  3559    1
  2670  3557  3560    1
  2671  3561  3562    1
  2672  3561  3563    1
  2673  3561  3564    1
  2674  3565  3566    1
  2675  3565  3567    1
  2676  3565  3568    1
  2677  3569  3570    1
  2678  3569  3571    1
  2679  3569  3572    1
  2680  3573  3574    1
  2681  3573  3575    1
  2682  3573  3576    1
  2683  3577  3578    1
  2684  3577  3579    1
  2685  3577  3580    1
  2686  3581  3582    1
  2687  3581  3583    1
  2688  3581  3584    1
  2689  3585  3586    1
  2690  3585  3587    1
  2691  3585  3588    1
  2692  3589  3590    1
  2693  3589  3591    1
  2694  3589  3592    1
  2695  3593  3594    1
  2696  3593  3595    1
  2697  3593  3596    1
  2698  3597  3598    1
  2699  3597  3599    1
  2700  3597  3600    1
  2701  3601  3602    1
  2702  3601  3603    1
  2703  3601  3604    1
  2704  3605  3606    1
  2705  3605  3607    1
  2706  3605  3608    1
  2707  3609  3610    1
  2708  3609  3611    1
  2709  3609  3612    1
  2710  3613  3614    1
  2711  3613  3615    1
  2712  3613  3616    1
  2713  3617  3618    1
  2714  3617  3619    1
  2715  3617  3620    1
  2716  3621  3622    1
  2717  3621  3623    1
  2718  3621  3624    1
  2719  3625  3626    1
  2720  3625  3627    1
  2721  3625  3628    1
  2722  3629  3630    1
  2723  3629  3631    1
  2724  3629  3632    1
  2725  3633  3634    1
  2726  3633  3635    1
  2727  3633  3636    1
  2728  3637  3638    1
  2729  3637  3639    1
  2730  3637  3640    1
  2731  3641  3642    1
  2732  3641  3643    1
  2733  3641  3644    1
  2734  3645  3646    1
  2735  3645  3647    1
  2736  3645  3648    1
  2737  3649  3650    1
  2738  3649  3651    1
  2739  3649  3652    1
  2740  3653  3654    1
  2741  3653  3655    1
  2742  3653  3656    1
  2743  3657  3658    1
  2744  3657  3659    1
  2745  3657  3660    1
  2746  3661  3662    1
  2747  3661  3663    1
  2748  3661  3664    1
  2749  3665  3666    1
  2750  3665  3667    1
  2751  3665  3668    1
  2752  3669  3670    1
  2753  3669  3671    1
  2754  3669  3672    1
  2755  3673  3674    1
  2756  3673  3675    1
  2757  3673  3676    1
  2758  3677  3678    1
  2759  3677  3679    1
  2760  3677  3680    1
  2761  3681  3682    1
  2762  3681  3683    1
  2763  3681  3684    1
  2764  3685  3686    1
  2765  3685  3687    1
  2766  3685  3688    1
  2767  3689  3690    1
  2768  3689  3691    1
  2769  3689  3692    1
  2770  3693  3694    1
  2771  3693  3695    1
  2772  3693  3696    1
  2773  3697  3698    1
  2774  3697  3699    1
  2775  3697  3700    1
  2776  3701  3702    1
  2777  3701  3703    1
  2778  3701  3704    1
  2779  3705  3706    1
  2780  3705  3707    1
  2781  3705  3708    1
  2782  3709  3710    1
  2783  3709  3711    1
  2784  3709  3712    1
  2785  3713  3714    1
  2786  3713  3715    1
  2787  3713  3716    1
  2788  3717  3718    1
  2789  3717  3719    1
  2790  3717  3720    1
  2791  3721  3722    1
  2792  3721  3723    1
  2793  3721  3724    1
  2794  3725  3726    1
  2795  3725  3727    1
  2796  3725  3728    1
  2797  3729  3730    1
  2798  3729  3731    1
  2799  3729  3732    1
  2800  3733  3734    1
  2801  3733  3735    1
  2802  3733  3736    1
  2803  3737  3738    1
  2804  3737  3739    1
  2805  3737  3740    1
  2806  3741  3742    1
  2807  3741  3743    1
  2808  3741  3744    1
  2809  3745  3746    1
  2810  3745  3747    1
  2811  3745  3748    1
  2812  3749  3750    1
  2813  3749  3751    1
  2814  3749  3752    1
  2815  3753  3754    1
  2816  3753  3755    1
  2817  3753  3756    1
  2818  3757  3758    1
  2819  3757  3759    1
  2820  3757  3760    1
  2821  3761  3762    1
  2822  3761  3763    1
  2823  3761  3764    1
  2824  3765  3766    1
  2825  3765  3767    1
  2826  3765  3768    1
  2827  3769  3770    1
  2828  3769  3771    1
  2829  3769  3772    1
  2830  3773  3774    1
  2831  3773  3775    1
  2832  3773  3776    1
  2833  3777  3778    1
  2834  3777  3779    1
  2835  3777  3780    1
  2836  3781  3782    1
  2837  3781  3783    1
  2838  3781  3784    1
  2839  3785  3786    1
  2840  3785  3787    1
  2841  3785  3788    1
  2842  3789  3790    1
  2843  3789  3791    1
  2844  3789  3792    1
  2845  3793  3794    1
  2846  3793  3795    1
  2847  3793  3796    1
  2848  3797  3798    1
  2849  3797  3799    1
  2850  3797  3800    1
  2851  3801  3802    1
  2852  3801  3803    1
  2853  3801  3804    1
  2854  3805  3806    1
  2855  3805  3807    1
  2856  3805  3808    1
  2857  3809  3810    1
  2858  3809  3811    1
  2859  3809  3812    1
  2860  3813  3814    1
  2861  3813  3815    1
  2862  3813  3816    1
