@<TRIPOS>MOLECULE
*****
 880 660 0 0 0
SMALL
GASTEIGER

@<TRIPOS>ATOM
      1 N          -1.1057    7.2795    3.5806 N.3     1  UNL1       -0.3437
      2 H          -1.5469    7.5708    4.4517 H       1  UNL1        0.1146
      3 H          -0.3791    7.9681    3.3899 H       1  UNL1        0.1146
      4 H          -0.6194    6.4087    3.7895 H       1  UNL1        0.1146
      5 N           2.4222    0.3043   -0.1325 N.3     2  UNL2       -0.3437
      6 H           1.6924    0.3732   -0.8403 H       2  UNL2        0.1146
      7 H           2.3672   -0.6441    0.2362 H       2  UNL2        0.1146
      8 H           3.3070    0.3593   -0.6351 H       2  UNL2        0.1146
      9 N           2.1556   -0.1270    3.7094 N.3     3  UNL3       -0.3437
     10 H           1.7166   -0.0035    4.6206 H       3  UNL3        0.1146
     11 H           2.8968    0.5705    3.6579 H       3  UNL3        0.1146
     12 H           2.6234   -1.0317    3.7433 H       3  UNL3        0.1146
     13 N           2.4355   -0.1606    7.9473 N.3     4  UNL4       -0.3437
     14 H           1.4670    0.0649    7.7250 H       4  UNL4        0.1146
     15 H           2.6165   -1.0696    7.5238 H       4  UNL4        0.1146
     16 H           3.0052    0.5082    7.4310 H       4  UNL4        0.1146
     17 N           2.1626   -0.2300   11.1975 N.3     5  UNL5       -0.3437
     18 H           1.7201    0.3098   10.4551 H       5  UNL5        0.1146
     19 H           2.8890   -0.7846   10.7469 H       5  UNL5        0.1146
     20 H           2.6491    0.4461   11.7846 H       5  UNL5        0.1146
     21 N           2.4463    3.3474    0.4703 N.3     6  UNL6       -0.3437
     22 H           2.9421    4.2336    0.3855 H       6  UNL6        0.1146
     23 H           2.5855    3.0384    1.4313 H       6  UNL6        0.1146
     24 H           1.4555    3.5709    0.3879 H       6  UNL6        0.1146
     25 N           2.1628    3.5574    3.9954 N.3     7  UNL7       -0.3437
     26 H           1.7211    3.8480    4.8665 H       7  UNL7        0.1146
     27 H           2.8884    4.2470    3.8047 H       7  UNL7        0.1146
     28 H           2.6503    2.6873    4.2043 H       7  UNL7        0.1146
     29 N           2.4691    3.5578    7.3921 N.3     8  UNL8       -0.3437
     30 H           1.5206    3.5605    7.7643 H       8  UNL8        0.1146
     31 H           2.9635    4.3051    7.8774 H       8  UNL8        0.1146
     32 H           2.8933    2.6877    7.7104 H       8  UNL8        0.1146
     33 N           2.1606    3.4356   11.1825 N.3     9  UNL9       -0.3437
     34 H           1.7189    3.4488   12.1007 H       9  UNL9        0.1146
     35 H           2.8862    4.1506   11.2096 H       9  UNL9        0.1146
     36 H           2.6481    2.5431   11.1181 H       9  UNL9        0.1146
     37 N           0.9533    7.5558   -0.3966 N.3    10  UNL10      -0.3437
     38 H           0.4890    7.7886   -1.2732 H      10  UNL10       0.1146
     39 H           1.7030    6.9096   -0.6388 H      10  UNL10       0.1146
     40 H           1.4101    8.4116   -0.0847 H      10  UNL10       0.1146
     41 N           2.1589    7.2807    3.7077 N.3    11  UNL11      -0.3437
     42 H           1.6258    7.6093    4.5116 H      11  UNL11       0.1146
     43 H           2.9043    7.9613    3.5678 H      11  UNL11       0.1146
     44 H           2.6164    6.4207    4.0066 H      11  UNL11       0.1146
     45 N           2.3205    7.3657    7.7753 N.3    12  UNL12      -0.3437
     46 H           1.8788    7.6563    8.6464 H      12  UNL12       0.1146
     47 H           3.0461    8.0553    7.5846 H      12  UNL12       0.1146
     48 H           2.8080    6.4956    7.9842 H      12  UNL12       0.1146
     49 N           2.3629    7.1796   11.3191 N.3    13  UNL13      -0.3437
     50 H           2.7063    7.8876   10.6717 H      13  UNL13       0.1146
     51 H           1.4232    6.9429   11.0039 H      13  UNL13       0.1146
     52 H           2.9313    6.3499   11.1552 H      13  UNL13       0.1146
     53 N           2.1782   10.9185    0.3450 N.3    14  UNL14      -0.3437
     54 H           1.7365   11.2854    1.1868 H      14  UNL14       0.1146
     55 H           2.9038   11.5884    0.0937 H      14  UNL14       0.1146
     56 H           2.6657   10.0704    0.6305 H      14  UNL14       0.1146
     57 N           2.2161   11.6828    3.8216 N.3    15  UNL15      -0.3437
     58 H           1.7937   11.9542    4.7084 H      15  UNL15       0.1146
     59 H           2.9376   12.3764    3.6302 H      15  UNL15       0.1146
     60 H           2.7076   10.8083    4.0006 H      15  UNL15       0.1146
     61 N           2.5225   11.5685    7.2270 N.3    16  UNL16      -0.3437
     62 H           1.7248   11.8295    7.8049 H      16  UNL16       0.1146
     63 H           3.2493   12.2547    7.4252 H      16  UNL16       0.1146
     64 H           2.8625   10.6835    7.6006 H      16  UNL16       0.1146
     65 N           2.1960   10.9487   11.0352 N.3    17  UNL17      -0.3437
     66 H           1.7745   11.0624   11.9559 H      17  UNL17       0.1146
     67 H           2.9203   11.6623   10.9677 H      17  UNL17       0.1146
     68 H           2.6842   10.0545   11.0583 H      17  UNL17       0.1146
     69 N           2.4664   14.9318    0.2211 N.3    18  UNL18      -0.3437
     70 H           1.5119   15.2828    0.1572 H      18  UNL18       0.1146
     71 H           2.6542   14.4656   -0.6654 H      18  UNL18       0.1146
     72 H           3.0675   15.7544    0.2386 H      18  UNL18       0.1146
     73 N           2.7127   15.3419    4.4740 N.3    19  UNL19      -0.3437
     74 H           3.1759   15.7163    3.6471 H      19  UNL19       0.1146
     75 H           1.8867   15.9207    4.6194 H      19  UNL19       0.1146
     76 H           2.3670   14.4206    4.2094 H      19  UNL19       0.1146
     77 N           2.2572   15.1741    7.5352 N.3    20  UNL20      -0.3437
     78 H           1.8542   15.4647    8.4248 H      20  UNL20       0.1146
     79 H           2.9737   15.8637    7.3128 H      20  UNL20       0.1146
     80 H           2.7534   14.3040    7.7224 H      20  UNL20       0.1146
     81 N           2.3823   14.8406   11.4194 N.3    21  UNL21      -0.3437
     82 H           2.6488   15.7456   11.0342 H      21  UNL21       0.1146
     83 H           1.4264   14.6735   11.1084 H      21  UNL21       0.1146
     84 H           2.9583   14.1505   10.9395 H      21  UNL21       0.1146
     85 N           5.6144   -0.1898    0.5449 N.3    22  UNL22      -0.3437
     86 H           6.2069    0.4285    1.0973 H      22  UNL22       0.1146
     87 H           6.2015   -0.5402   -0.2107 H      22  UNL22       0.1146
     88 H           5.4140   -0.9923    1.1401 H      22  UNL22       0.1146
     89 N           5.5948   -0.0319    4.0622 N.3    23  UNL23      -0.3437
     90 H           5.9751   -0.3071    3.1578 H      23  UNL23       0.1146
     91 H           4.7279   -0.5558    4.1736 H      23  UNL23       0.1146
     92 H           6.2377   -0.4009    4.7613 H      23  UNL23       0.1146
     93 N           5.5640   -0.1689    7.3139 N.3    24  UNL24      -0.3437
     94 H           5.0602    0.1488    8.1407 H      24  UNL24       0.1146
     95 H           6.2855    0.5292    7.1392 H      24  UNL24       0.1146
     96 H           6.0554   -1.0168    7.5929 H      24  UNL24       0.1146
     97 N           5.7922    0.0758   10.7701 N.3    25  UNL25      -0.3437
     98 H           6.3490    0.2054   11.6136 H      25  UNL25       0.1146
     99 H           5.8735   -0.9108   10.5286 H      25  UNL25       0.1146
    100 H           4.8224    0.2176   11.0492 H      25  UNL25       0.1146
    101 N           5.4934    3.3411    0.0643 N.3    26  UNL26      -0.3437
    102 H           5.0438    3.7899    0.8610 H      26  UNL26       0.1146
    103 H           6.2396    3.9703   -0.2283 H      26  UNL26       0.1146
    104 H           5.9548    2.5108    0.4332 H      26  UNL26       0.1146
    105 N           5.7187    3.4019    3.8530 N.3    27  UNL27      -0.3437
    106 H           5.2720    3.6842    4.7243 H      27  UNL27       0.1146
    107 H           6.4299    4.1060    3.6610 H      27  UNL27       0.1146
    108 H           6.2241    2.5421    4.0622 H      27  UNL27       0.1146
    109 N           5.5667    3.5403    7.3539 N.3    28  UNL28      -0.3437
    110 H           5.0871    3.8309    8.2048 H      28  UNL28       0.1146
    111 H           6.2999    4.2299    7.1953 H      28  UNL28       0.1146
    112 H           6.0445    2.6702    7.5840 H      28  UNL28       0.1146
    113 N           5.8794    3.1624   11.0440 N.3    29  UNL29      -0.3437
    114 H           6.1749    3.8944   11.6883 H      29  UNL29       0.1146
    115 H           4.9016    3.3542   10.8303 H      29  UNL29       0.1146
    116 H           6.3930    3.3253   10.1791 H      29  UNL29       0.1146
    117 N           5.8842    7.4243    0.4732 N.3    30  UNL30      -0.3437
    118 H           4.9330    7.7708    0.3568 H      30  UNL30       0.1146
    119 H           5.9954    6.6749   -0.2083 H      30  UNL30       0.1146
    120 H           6.4972    8.1775    0.1648 H      30  UNL30       0.1146
    121 N           5.8776    7.5862    3.8268 N.3    31  UNL31      -0.3437
    122 H           5.4443    7.8380    4.7140 H      31  UNL31       0.1146
    123 H           6.5680    8.3111    3.6358 H      31  UNL31       0.1146
    124 H           6.4072    6.7340    4.0047 H      31  UNL31       0.1146
    125 N           5.5851    7.3582    7.3166 N.3    32  UNL32      -0.3437
    126 H           4.9468    7.0095    8.0303 H      32  UNL32       0.1146
    127 H           6.3038    7.8820    7.8142 H      32  UNL32       0.1146
    128 H           6.0512    6.5380    6.9317 H      32  UNL32       0.1146
    129 N           5.4403    7.2476   10.6582 N.3    33  UNL33      -0.3437
    130 H           4.9998    7.2309   11.5769 H      33  UNL33       0.1146
    131 H           6.1501    7.9776   10.7003 H      33  UNL33       0.1146
    132 H           5.9472    6.3677   10.5738 H      33  UNL33       0.1146
    133 N           5.7804   10.7124    0.3667 N.3    34  UNL34      -0.3437
    134 H           4.8623   10.8612    0.7830 H      34  UNL34       0.1146
    135 H           6.1382   11.6385    0.1373 H      34  UNL34       0.1146
    136 H           6.3745   10.3594    1.1156 H      34  UNL34       0.1146
    137 N           5.2562   11.1147    3.3954 N.3    35  UNL35      -0.3437
    138 H           4.8088   11.4069    4.2630 H      35  UNL35       0.1146
    139 H           6.0157   11.7748    3.2348 H      35  UNL35       0.1146
    140 H           5.6998   10.2195    3.5957 H      35  UNL35       0.1146
    141 N           5.5425   10.9409    7.5361 N.3    36  UNL36      -0.3437
    142 H           5.0389   11.0838    8.4104 H      36  UNL36       0.1146
    143 H           6.2565   11.6671    7.5013 H      36  UNL36       0.1146
    144 H           6.0432   10.0596    7.6412 H      36  UNL36       0.1146
    145 N           5.9958   10.9894   10.8504 N.3    37  UNL37      -0.3437
    146 H           5.9883   10.5005   11.7444 H      37  UNL37       0.1146
    147 H           5.0187   11.1490   10.6093 H      37  UNL37       0.1146
    148 H           6.3929   11.9092   11.0367 H      37  UNL37       0.1146
    149 N           5.5463   14.8303    0.0366 N.3    38  UNL38      -0.3437
    150 H           5.0545   15.1000    0.8873 H      38  UNL38       0.1146
    151 H           6.2486   15.5514   -0.1224 H      38  UNL38       0.1146
    152 H           6.0619   13.9822    0.2671 H      38  UNL38       0.1146
    153 N           5.7287   15.0347    3.8264 N.3    39  UNL39      -0.3437
    154 H           5.4280   15.4656    4.6995 H      39  UNL39       0.1146
    155 H           6.4254   15.6630    3.4284 H      39  UNL39       0.1146
    156 H           6.2315   14.1883    4.0894 H      39  UNL39       0.1146
    157 N           5.5448   15.2221    7.3357 N.3    40  UNL40      -0.3437
    158 H           5.2692   15.5596    8.2568 H      40  UNL40       0.1146
    159 H           6.2407   15.8821    6.9914 H      40  UNL40       0.1146
    160 H           6.0422   14.3470    7.4944 H      40  UNL40       0.1146
    161 N           5.4202   15.1202   10.8658 N.3    41  UNL41      -0.3437
    162 H           4.9785   15.2340   11.7771 H      41  UNL41       0.1146
    163 H           6.1458   15.8338   10.8143 H      41  UNL41       0.1146
    164 H           5.9077   14.2260   10.8997 H      41  UNL41       0.1146
    165 N           8.7999   -0.2144    0.1656 N.3    42  UNL42      -0.3437
    166 H           9.2258    0.6828    0.3938 H      42  UNL42       0.1146
    167 H           8.2929   -0.0710   -0.7066 H      42  UNL42       0.1146
    168 H           9.5707   -0.8425   -0.0576 H      42  UNL42       0.1146
    169 N           9.1358   -0.4278    3.9961 N.3    43  UNL43      -0.3437
    170 H           8.2394    0.0464    3.8963 H      43  UNL43       0.1146
    171 H           9.6989    0.1615    4.6076 H      43  UNL43       0.1146
    172 H           8.9461   -1.2790    4.5232 H      43  UNL43       0.1146
    173 N           9.1307   -0.6382    7.6217 N.3    44  UNL44      -0.3437
    174 H           9.2077   -0.6196    6.6058 H      44  UNL44       0.1146
    175 H           9.7325    0.1101    7.9626 H      44  UNL44       0.1146
    176 H           8.1768   -0.3512    7.8364 H      44  UNL44       0.1146
    177 N           8.8856   -0.0296   10.8835 N.3    45  UNL45      -0.3437
    178 H           8.5131   -0.1956   11.8173 H      45  UNL45       0.1146
    179 H           9.4508    0.8155   10.9527 H      45  UNL45       0.1146
    180 H           9.5390   -0.7903   10.7025 H      45  UNL45       0.1146
    181 N           8.8972    3.3536    0.5295 N.3    46  UNL46      -0.3437
    182 H           8.4390    3.9254   -0.1786 H      46  UNL46       0.1146
    183 H           9.6130    2.8192    0.0390 H      46  UNL46       0.1146
    184 H           9.3971    4.0032    1.1348 H      46  UNL46       0.1146
    185 N           9.0579    3.7573    3.7087 N.3    47  UNL47      -0.3437
    186 H           9.5165    4.0467    4.5714 H      47  UNL47       0.1146
    187 H           9.7564    3.2364    3.1803 H      47  UNL47       0.1146
    188 H           8.3486    3.0785    3.9817 H      47  UNL47       0.1146
    189 N           8.9128    3.7554    7.1351 N.3    48  UNL48      -0.3437
    190 H           9.0829    4.2560    8.0062 H      48  UNL48       0.1146
    191 H           9.7628    3.2267    6.9444 H      48  UNL48       0.1146
    192 H           8.1934    3.0646    7.3440 H      48  UNL48       0.1146
    193 N           8.9663    3.3648   10.9017 N.3    49  UNL49      -0.3437
    194 H           8.3617    3.9814   11.4426 H      49  UNL49       0.1146
    195 H           9.5536    3.9744   10.3343 H      49  UNL49       0.1146
    196 H           9.5897    2.9214   11.5749 H      49  UNL49       0.1146
    197 N           8.9558    7.2409   -0.1104 N.3    50  UNL50      -0.3437
    198 H           8.5141    7.5315    0.7607 H      50  UNL50       0.1146
    199 H           9.6814    7.9305   -0.3011 H      50  UNL50       0.1146
    200 H           9.4433    6.3708    0.0985 H      50  UNL50       0.1146
    201 N           8.9570    7.2129    3.4982 N.3    51  UNL51      -0.3437
    202 H           8.4852    7.5044    4.3531 H      51  UNL51       0.1146
    203 H           9.6583    7.9270    3.3069 H      51  UNL51       0.1146
    204 H           9.4743    6.3681    3.7370 H      51  UNL51       0.1146
    205 N           8.8676    7.2822    7.4559 N.3    52  UNL52      -0.3437
    206 H           8.4259    7.5728    8.3270 H      52  UNL52       0.1146
    207 H           9.5932    7.9718    7.2652 H      52  UNL52       0.1146
    208 H           9.3551    6.4121    7.6648 H      52  UNL52       0.1146
    209 N           9.2223    7.2620   10.8589 N.3    53  UNL53      -0.3437
    210 H           9.7073    8.1465   11.0030 H      53  UNL53       0.1146
    211 H           9.0904    6.8598   11.7859 H      53  UNL53       0.1146
    212 H           8.2912    7.5038   10.5227 H      53  UNL53       0.1146
    213 N           8.7602   11.0038   -0.4299 N.3    54  UNL54      -0.3437
    214 H           8.4432   10.8119    0.5193 H      54  UNL54       0.1146
    215 H           9.0861   11.9693   -0.4273 H      54  UNL54       0.1146
    216 H           9.5891   10.4281   -0.5710 H      54  UNL54       0.1146
    217 N           9.0975   10.9094    4.1337 N.3    55  UNL55      -0.3437
    218 H           9.8352   10.8519    4.8343 H      55  UNL55       0.1146
    219 H           9.3661   11.6646    3.5044 H      55  UNL55       0.1146
    220 H           9.1619   10.0520    3.5869 H      55  UNL55       0.1146
    221 N           8.8696   11.3000    7.2585 N.3    56  UNL56      -0.3437
    222 H           9.0667   11.8050    8.1213 H      56  UNL56       0.1146
    223 H           9.7219   10.7899    7.0307 H      56  UNL56       0.1146
    224 H           8.1754   10.5937    7.4988 H      56  UNL56       0.1146
    225 N           9.0594   11.1550   10.6901 N.3    57  UNL57      -0.3437
    226 H           8.5136   11.5165   11.4710 H      57  UNL57       0.1146
    227 H           9.7729   11.8566   10.4975 H      57  UNL57       0.1146
    228 H           9.5561   10.3404   11.0479 H      57  UNL57       0.1146
    229 N           8.7062   14.6659   -0.2093 N.3    58  UNL58      -0.3437
    230 H           8.2645   15.2225   -0.9396 H      58  UNL58       0.1146
    231 H           9.4318   14.1203   -0.6720 H      58  UNL58       0.1146
    232 H           9.1937   15.3282    0.3925 H      58  UNL58       0.1146
    233 N           8.7848   14.8563    4.3240 N.3    59  UNL59      -0.3437
    234 H           9.5311   15.1732    4.9412 H      59  UNL59       0.1146
    235 H           8.7873   15.4946    3.5296 H      59  UNL59       0.1146
    236 H           9.0859   13.9535    3.9597 H      59  UNL59       0.1146
    237 N           8.6298   14.9156    7.4198 N.3    60  UNL60      -0.3437
    238 H           8.3241   15.3281    8.3000 H      60  UNL60       0.1146
    239 H           9.5571   15.2970    7.2378 H      60  UNL60       0.1146
    240 H           8.7660   13.9233    7.6070 H      60  UNL60       0.1146
    241 N           9.2098   14.9654   10.7681 N.3    61  UNL61      -0.3437
    242 H           9.1120   14.5277   11.6831 H      61  UNL61       0.1146
    243 H           8.2739   15.2650   10.4985 H      61  UNL61       0.1146
    244 H           9.7448   15.8191   10.9209 H      61  UNL61       0.1146
    245 N          12.3415   -0.0824    0.8151 N.3    62  UNL62      -0.3437
    246 H          12.7760    0.2390   -0.0488 H      62  UNL62       0.1146
    247 H          11.3555    0.1646    0.7424 H      62  UNL62       0.1146
    248 H          12.3788   -1.1003    0.7865 H      62  UNL62       0.1146
    249 N          12.2284   -0.5432    4.3156 N.3    63  UNL63      -0.3437
    250 H          11.7266   -0.0144    3.6036 H      63  UNL63       0.1146
    251 H          12.9358   -1.0825    3.8184 H      63  UNL63       0.1146
    252 H          12.7373    0.1442    4.8695 H      63  UNL63       0.1146
    253 N          12.3421   -0.2243    7.4635 N.3    64  UNL64      -0.3437
    254 H          11.9004    0.0663    8.3346 H      64  UNL64       0.1146
    255 H          13.0677    0.4653    7.2728 H      64  UNL64       0.1146
    256 H          12.8296   -1.0944    7.6724 H      64  UNL64       0.1146
    257 N          12.6002   -0.4957   10.8240 N.3    65  UNL65      -0.3437
    258 H          13.0656    0.3920   11.0075 H      65  UNL65       0.1146
    259 H          12.4767   -0.9411   11.7322 H      65  UNL65       0.1146
    260 H          11.6642   -0.2599   10.4974 H      65  UNL65       0.1146
    261 N          12.4909    3.2482    0.9148 N.3    66  UNL66      -0.3437
    262 H          11.5292    3.5690    0.8117 H      66  UNL66       0.1146
    263 H          12.6065    2.4876    0.2466 H      66  UNL66       0.1146
    264 H          13.0786    4.0096    0.5780 H      66  UNL66       0.1146
    265 N          12.2806    3.3442    4.1614 N.3    67  UNL67      -0.3437
    266 H          11.8389    3.8682    3.4072 H      67  UNL67       0.1146
    267 H          13.0062    2.7787    3.7230 H      67  UNL67       0.1146
    268 H          12.7681    4.0323    4.7334 H      67  UNL67       0.1146
    269 N          12.4238    3.5117    7.6498 N.3    68  UNL68      -0.3437
    270 H          13.1557    3.8023    8.2965 H      68  UNL68       0.1146
    271 H          12.4219    4.2013    6.8995 H      68  UNL68       0.1146
    272 H          12.7487    2.6416    7.2305 H      68  UNL68       0.1146
    273 N          12.5889    3.5330   10.8715 N.3    69  UNL69      -0.3437
    274 H          13.0667    3.7132   11.7533 H      69  UNL69       0.1146
    275 H          12.7118    2.5391   10.6834 H      69  UNL69       0.1146
    276 H          11.5956    3.6627   11.0586 H      69  UNL69       0.1146
    277 N          12.3164    7.1561    0.3676 N.3    70  UNL70      -0.3437
    278 H          11.8633    7.6702   -0.3866 H      70  UNL70       0.1146
    279 H          13.0542    6.6067   -0.0708 H      70  UNL70       0.1146
    280 H          12.7887    7.8547    0.9396 H      70  UNL70       0.1146
    281 N          12.3176    7.5524    3.5295 N.3    71  UNL71      -0.3437
    282 H          12.2938    8.0530    4.4167 H      71  UNL71       0.1146
    283 H          13.1888    7.0237    3.5287 H      71  UNL71       0.1146
    284 H          11.5700    6.8616    3.5766 H      71  UNL71       0.1146
    285 N          12.1234    7.1849    7.2402 N.3    72  UNL72      -0.3437
    286 H          11.6886    7.5231    8.0975 H      72  UNL72       0.1146
    287 H          12.8639    7.8493    7.0198 H      72  UNL72       0.1146
    288 H          12.5918    6.3143    7.4874 H      72  UNL72       0.1146
    289 N          12.3073    7.4918   10.6713 N.3    73  UNL73      -0.3437
    290 H          11.7652    7.5318   11.5332 H      73  UNL73       0.1146
    291 H          12.9120    8.3119   10.6814 H      73  UNL73       0.1146
    292 H          12.9247    6.6865   10.7650 H      73  UNL73       0.1146
    293 N          11.8365   11.5029    0.3325 N.3    74  UNL74      -0.3437
    294 H          12.1837   12.4484    0.1777 H      74  UNL74       0.1146
    295 H          12.3222   10.9116   -0.3405 H      74  UNL74       0.1146
    296 H          12.1802   11.2243    1.2505 H      74  UNL74       0.1146
    297 N          12.4300   11.0121    3.9505 N.3    75  UNL75      -0.3437
    298 H          11.9883   11.3027    4.8215 H      75  UNL75       0.1146
    299 H          13.1556   11.7017    3.7598 H      75  UNL75       0.1146
    300 H          12.9175   10.1420    4.1593 H      75  UNL75       0.1146
    301 N          12.3003   11.3000    7.6505 N.3    76  UNL76      -0.3437
    302 H          11.7753   10.4908    7.9788 H      76  UNL76       0.1146
    303 H          12.9966   11.4934    8.3689 H      76  UNL76       0.1146
    304 H          12.8205   10.9846    6.8330 H      76  UNL76       0.1146
    305 N          12.5478   11.3361   11.1336 N.3    77  UNL77      -0.3437
    306 H          13.0464   11.5181   12.0035 H      77  UNL77       0.1146
    307 H          12.9851   10.5105   10.7267 H      77  UNL77       0.1146
    308 H          11.6073   11.0516   11.4033 H      77  UNL77       0.1146
    309 N          12.3182   15.0557    0.6332 N.3    78  UNL78      -0.3437
    310 H          11.8765   15.5796   -0.1209 H      78  UNL78       0.1146
    311 H          13.0438   14.4902    0.1948 H      78  UNL78       0.1146
    312 H          12.8057   15.7437    1.2053 H      78  UNL78       0.1146
    313 N          12.3477   15.0035    4.1520 N.3    79  UNL79      -0.3437
    314 H          13.1198   15.2064    4.7853 H      79  UNL79       0.1146
    315 H          12.4463   15.6521    3.3721 H      79  UNL79       0.1146
    316 H          12.5327   14.0766    3.7714 H      79  UNL79       0.1146
    317 N          12.1835   14.9275    7.2472 N.3    80  UNL80      -0.3437
    318 H          11.8689   15.3525    8.1183 H      80  UNL80       0.1146
    319 H          13.1022   15.3251    7.0565 H      80  UNL80       0.1146
    320 H          12.3416   13.9428    7.4561 H      80  UNL80       0.1146
    321 N          12.2942   15.3120   10.8555 N.3    81  UNL81      -0.3437
    322 H          11.8525   14.5421   11.3560 H      81  UNL81       0.1146
    323 H          13.0198   15.6701   11.4749 H      81  UNL81       0.1146
    324 H          12.7817   14.8908   10.0660 H      81  UNL81       0.1146
    325 N          15.8902    0.0144    0.6691 N.3    82  UNL82      -0.3437
    326 H          15.8379   -0.7838    1.3003 H      82  UNL82       0.1146
    327 H          16.4099   -0.3062   -0.1467 H      82  UNL82       0.1146
    328 H          14.9378    0.1812    0.3475 H      82  UNL82       0.1146
    329 N          15.8558   -0.4013    3.9420 N.3    83  UNL83      -0.3437
    330 H          14.9115   -0.2347    4.2866 H      83  UNL83       0.1146
    331 H          16.0141    0.2906    3.2107 H      83  UNL83       0.1146
    332 H          16.4819   -0.1506    4.7059 H      83  UNL83       0.1146
    333 N          15.9197   -0.5550    7.2301 N.3    84  UNL84      -0.3437
    334 H          14.9753   -0.5782    7.6120 H      84  UNL84       0.1146
    335 H          16.0594    0.3931    6.8836 H      84  UNL84       0.1146
    336 H          16.5472   -0.6581    8.0264 H      84  UNL84       0.1146
    337 N          15.6545   -0.0461   10.6638 N.3    85  UNL85      -0.3437
    338 H          15.1550   -0.0352   11.5519 H      85  UNL85       0.1146
    339 H          16.3431    0.7030   10.7196 H      85  UNL85       0.1146
    340 H          16.1859   -0.9155   10.6511 H      85  UNL85       0.1146
    341 N          15.6539    3.4987    0.2189 N.3    86  UNL86      -0.3437
    342 H          15.2059    3.7795    1.0900 H      86  UNL86       0.1146
    343 H          16.3642    4.2041    0.0282 H      86  UNL86       0.1146
    344 H          16.1604    2.6395    0.4278 H      86  UNL86       0.1146
    345 N          15.8864    3.8176    4.2253 N.3    87  UNL87      -0.3437
    346 H          16.4177    3.0513    4.6362 H      87  UNL87       0.1146
    347 H          16.0084    3.7351    3.2170 H      87  UNL87       0.1146
    348 H          14.9058    3.6088    4.4075 H      87  UNL87       0.1146
    349 N          15.6959    3.7666    7.5422 N.3    88  UNL88      -0.3437
    350 H          15.2392    3.0790    8.1398 H      88  UNL88       0.1146
    351 H          16.4311    4.1870    8.1088 H      88  UNL88       0.1146
    352 H          16.1714    3.2347    6.8147 H      88  UNL88       0.1146
    353 N          15.6851    3.5637   10.7096 N.3    89  UNL89      -0.3437
    354 H          15.2030    4.1166   11.4170 H      89  UNL89       0.1146
    355 H          16.3934    4.1768   10.3086 H      89  UNL89       0.1146
    356 H          16.1938    2.8409   11.2167 H      89  UNL89       0.1146
    357 N          15.9066    7.3609    0.3845 N.3    90  UNL90      -0.3437
    358 H          16.4602    7.5221    1.2247 H      90  UNL90       0.1146
    359 H          16.0116    6.3714    0.1647 H      90  UNL90       0.1146
    360 H          14.9338    7.4854    0.6609 H      90  UNL90       0.1146
    361 N          15.7975    7.3049    3.8987 N.3    91  UNL91      -0.3437
    362 H          15.3558    7.5955    4.7698 H      91  UNL91       0.1146
    363 H          16.5231    7.9945    3.7080 H      91  UNL91       0.1146
    364 H          16.2850    6.4348    4.1076 H      91  UNL91       0.1146
    365 N          15.7883    7.3970    7.3765 N.3    92  UNL92      -0.3437
    366 H          15.3466    7.6100    8.2697 H      92  UNL92       0.1146
    367 H          16.5139    8.1007    7.2471 H      92  UNL92       0.1146
    368 H          16.2758    6.5119    7.5082 H      92  UNL92       0.1146
    369 N          16.0171    7.3102   10.8162 N.3    93  UNL93      -0.3437
    370 H          16.4750    7.6314   11.6680 H      93  UNL93       0.1146
    371 H          16.3080    6.3419   10.6890 H      93  UNL93       0.1146
    372 H          15.0208    7.2786   11.0276 H      93  UNL93       0.1146
    373 N          15.7019   11.4026   -0.1293 N.3    94  UNL94      -0.3437
    374 H          15.8251   12.3766    0.1438 H      94  UNL94       0.1146
    375 H          16.5745   11.1235   -0.5754 H      94  UNL94       0.1146
    376 H          15.6482   10.8720    0.7390 H      94  UNL94       0.1146
    377 N          15.7204   11.0357    3.7927 N.3    95  UNL95      -0.3437
    378 H          15.2822   11.4183    4.6293 H      95  UNL95       0.1146
    379 H          16.5390   11.6157    3.6142 H      95  UNL95       0.1146
    380 H          16.0781   10.1190    4.0573 H      95  UNL95       0.1146
    381 N          15.8404   10.7438    7.1514 N.3    96  UNL96      -0.3437
    382 H          14.8959   10.7626    7.5334 H      96  UNL96       0.1146
    383 H          15.9800   11.6481    6.7030 H      96  UNL96       0.1146
    384 H          16.4679   10.7286    7.9541 H      96  UNL96       0.1146
    385 N          15.5825   11.3847   11.2447 N.3    97  UNL97      -0.3437
    386 H          15.1585   10.7240   10.5951 H      97  UNL97       0.1146
    387 H          16.1281   10.8250   11.8985 H      97  UNL97       0.1146
    388 H          16.2584   11.9191   10.7006 H      97  UNL97       0.1146
    389 N          15.9235   15.4895    0.7319 N.3    98  UNL98      -0.3437
    390 H          16.4519   14.8071    1.2736 H      98  UNL98       0.1146
    391 H          16.0517   15.2321   -0.2457 H      98  UNL98       0.1146
    392 H          14.9417   15.3152    0.9417 H      98  UNL98       0.1146
    393 N          15.6835   15.0594    3.8496 N.3    99  UNL99      -0.3437
    394 H          15.2289   15.7392    4.4577 H      99  UNL99       0.1146
    395 H          16.3963   15.5750    3.3354 H      99  UNL99       0.1146
    396 H          16.1870   14.4234    4.4664 H      99  UNL99       0.1146
    397 N          15.6789   15.0643    7.6102 N.3   100  UNL100     -0.3437
    398 H          15.2372   15.3549    8.4813 H     100  UNL100      0.1146
    399 H          16.4045   15.7539    7.4195 H     100  UNL100      0.1146
    400 H          16.1664   14.1942    7.8191 H     100  UNL100      0.1146
    401 N          15.8542   14.5157   10.9179 N.3   101  UNL101     -0.3437
    402 H          15.8376   13.9683   11.7772 H     101  UNL101      0.1146
    403 H          14.8864   14.7745   10.7309 H     101  UNL101      0.1146
    404 H          16.3375   15.3831   11.1468 H     101  UNL101      0.1146
    405 N          18.9486   -0.0370    0.5614 N.3   102  UNL102     -0.3437
    406 H          19.6240   -0.6055    1.0703 H     102  UNL102      0.1146
    407 H          18.4346    0.4880    1.2675 H     102  UNL102      0.1146
    408 H          19.4939    0.6498    0.0424 H     102  UNL102      0.1146
    409 N          18.9532   -0.1696    3.7764 N.3   103  UNL103     -0.3437
    410 H          18.4922   -0.9384    4.2608 H     103  UNL103      0.1146
    411 H          19.3707    0.4101    4.5031 H     103  UNL103      0.1146
    412 H          19.7317   -0.5852    3.2669 H     103  UNL103      0.1146
    413 N          19.0100   -0.0810    7.1027 N.3   104  UNL104     -0.3437
    414 H          18.5683    0.2096    7.9738 H     104  UNL104      0.1146
    415 H          19.7356    0.6086    6.9120 H     104  UNL104      0.1146
    416 H          19.4975   -0.9511    7.3116 H     104  UNL104      0.1146
    417 N          18.9704    0.0592   11.6170 N.3   105  UNL105     -0.3437
    418 H          18.2643   -0.3740   11.0236 H     105  UNL105      0.1146
    419 H          19.2129   -0.6377   12.3197 H     105  UNL105      0.1146
    420 H          19.7985    0.1694   11.0335 H     105  UNL105      0.1146
    421 N          18.9214    3.4766    0.4348 N.3   106  UNL106     -0.3437
    422 H          18.4968    2.5537    0.5138 H     106  UNL106      0.1146
    423 H          19.6930    3.4886    1.1003 H     106  UNL106      0.1146
    424 H          19.3478    3.5113   -0.4901 H     106  UNL106      0.1146
    425 N          18.9904    3.2881    3.6479 N.3   107  UNL107     -0.3437
    426 H          18.5036    3.5451    4.5054 H     107  UNL107      0.1146
    427 H          19.6032    4.0718    3.4271 H     107  UNL107      0.1146
    428 H          19.6040    2.5128    3.8948 H     107  UNL107      0.1146
    429 N          19.2746    3.6148    7.5756 N.3   108  UNL108     -0.3437
    430 H          18.5496    3.6202    8.2916 H     108  UNL108      0.1146
    431 H          19.8020    2.7543    7.7164 H     108  UNL108      0.1146
    432 H          18.7899    3.5047    6.6860 H     108  UNL108      0.1146
    433 N          19.3064    3.1097   11.0484 N.3   109  UNL109     -0.3437
    434 H          19.8016    3.9952   11.1433 H     109  UNL109      0.1146
    435 H          19.4049    2.6352   11.9448 H     109  UNL109      0.1146
    436 H          18.3192    3.3476   10.9637 H     109  UNL109      0.1146
    437 N          18.9038    6.9017   -0.1083 N.3   110  UNL110     -0.3437
    438 H          18.5346    7.6253    0.5068 H     110  UNL110      0.1146
    439 H          19.7861    7.2625   -0.4685 H     110  UNL110      0.1146
    440 H          19.1467    6.1173    0.4951 H     110  UNL110      0.1146
    441 N          19.1326    7.5988    3.6144 N.3   111  UNL111     -0.3437
    442 H          19.3606    8.0801    4.4832 H     111  UNL111      0.1146
    443 H          19.9672    7.0740    3.3566 H     111  UNL111      0.1146
    444 H          18.4272    6.9039    3.8551 H     111  UNL111      0.1146
    445 N          19.0130    7.2210    7.3007 N.3   112  UNL112     -0.3437
    446 H          18.6554    7.6279    8.1637 H     112  UNL112      0.1146
    447 H          19.8822    7.7126    7.0975 H     112  UNL112      0.1146
    448 H          19.2785    6.2643    7.5301 H     112  UNL112      0.1146
    449 N          19.0222    7.7136   10.9438 N.3   113  UNL113     -0.3437
    450 H          18.5641    6.9648   11.4613 H     113  UNL113      0.1146
    451 H          19.7560    8.0693   11.5549 H     113  UNL113      0.1146
    452 H          19.4995    7.2646   10.1635 H     113  UNL113      0.1146
    453 N          19.2004   11.1094   -0.7022 N.3   114  UNL114     -0.3437
    454 H          18.5914   11.8049   -1.1308 H     114  UNL114      0.1146
    455 H          19.9196   11.6335   -0.2058 H     114  UNL114      0.1146
    456 H          18.6413   10.6507    0.0156 H     114  UNL114      0.1146
    457 N          19.1326   11.0954    3.9245 N.3   115  UNL115     -0.3437
    458 H          18.6909   11.3668    4.8018 H     115  UNL115      0.1146
    459 H          19.8582   11.7890    3.7490 H     115  UNL115      0.1146
    460 H          19.6201   10.2209    4.1142 H     115  UNL115      0.1146
    461 N          19.0507   11.0448    7.4079 N.3   116  UNL116     -0.3437
    462 H          18.5649   11.3253    8.2586 H     116  UNL116      0.1146
    463 H          19.7686   11.7503    7.2489 H     116  UNL116      0.1146
    464 H          19.5475   10.1856    7.6384 H     116  UNL116      0.1146
    465 N          19.1913   10.7752   11.1014 N.3   117  UNL117     -0.3437
    466 H          19.4270   10.2144   11.9189 H     117  UNL117      0.1146
    467 H          18.2055   11.0140   11.1994 H     117  UNL117      0.1146
    468 H          19.7036   11.6500   11.2036 H     117  UNL117      0.1146
    469 N          19.1049   14.6387    0.4911 N.3   118  UNL118     -0.3437
    470 H          19.8770   14.9105    1.0980 H     118  UNL118      0.1146
    471 H          19.0982   15.3122   -0.2736 H     118  UNL118      0.1146
    472 H          19.3732   13.7469    0.0774 H     118  UNL118      0.1146
    473 N          18.7586   14.6607    4.1139 N.3   119  UNL119     -0.3437
    474 H          19.3392   15.1602    4.7860 H     119  UNL119      0.1146
    475 H          18.5811   15.3163    3.3542 H     119  UNL119      0.1146
    476 H          19.3495   13.9292    3.7213 H     119  UNL119      0.1146
    477 N          19.2647   14.5949    7.3659 N.3   120  UNL120     -0.3437
    478 H          18.3204   14.5761    7.7485 H     120  UNL120      0.1146
    479 H          19.3840   15.5209    6.9577 H     120  UNL120      0.1146
    480 H          19.8931   14.5582    8.1673 H     120  UNL120      0.1146
    481 N          18.8973   15.4099   10.4706 N.3   121  UNL121     -0.3437
    482 H          18.4497   15.8479   11.2744 H     121  UNL121      0.1146
    483 H          19.6565   16.0325   10.1979 H     121  UNL121      0.1146
    484 H          19.3414   14.5632   10.8232 H     121  UNL121      0.1146
    485 N          22.0299    0.1327    0.2399 N.3   122  UNL122     -0.3437
    486 H          22.6896    0.8550    0.5253 H     122  UNL122      0.1146
    487 H          22.5512   -0.5007   -0.3646 H     122  UNL122      0.1146
    488 H          21.8128   -0.3980    1.0822 H     122  UNL122      0.1146
    489 N          22.3200   -0.2616    7.5192 N.3   123  UNL123     -0.3437
    490 H          22.1256    0.1410    6.6035 H     123  UNL123      0.1146
    491 H          22.9654   -1.0330    7.3556 H     123  UNL123      0.1146
    492 H          22.8493    0.4438    8.0296 H     123  UNL123      0.1146
    493 N          22.3925   -0.1673   10.5968 N.3   124  UNL124     -0.3437
    494 H          21.9609    0.2185   11.4354 H     124  UNL124      0.1146
    495 H          22.9867    0.5708   10.2218 H     124  UNL124      0.1146
    496 H          23.0236   -0.9002   10.9174 H     124  UNL124      0.1146
    497 N          22.7041    3.5706    0.0561 N.3   125  UNL125     -0.3437
    498 H          21.7162    3.4005    0.2389 H     125  UNL125      0.1146
    499 H          22.8812    4.5325    0.3422 H     125  UNL125      0.1146
    500 H          23.2165    2.9835    0.7126 H     125  UNL125      0.1146
    501 N          22.3539    2.1391    4.4970 N.3   126  UNL126     -0.3437
    502 H          22.2681    1.3769    3.8261 H     126  UNL126      0.1146
    503 H          23.3103    2.4808    4.4131 H     126  UNL126      0.1146
    504 H          21.7566    2.8879    4.1493 H     126  UNL126      0.1146
    505 N          22.3569    3.4088    7.6063 N.3   127  UNL127     -0.3437
    506 H          21.7133    3.5947    8.3742 H     127  UNL127      0.1146
    507 H          22.9417    4.2391    7.5227 H     127  UNL127      0.1146
    508 H          22.9719    2.6634    7.9295 H     127  UNL127      0.1146
    509 N          22.3589    3.5350   10.9324 N.3   128  UNL128     -0.3437
    510 H          21.8994    3.6591   11.8334 H     128  UNL128      0.1146
    511 H          23.1006    4.2328   10.8968 H     128  UNL128      0.1146
    512 H          22.8262    2.6306   10.9776 H     128  UNL128      0.1146
    513 N          22.4402    7.1427    0.2082 N.3   129  UNL129     -0.3437
    514 H          21.9432    7.7081   -0.4786 H     129  UNL129      0.1146
    515 H          23.1700    6.6523   -0.3069 H     129  UNL129      0.1146
    516 H          22.9217    7.8013    0.8188 H     129  UNL129      0.1146
    517 N          22.5600    5.9710    4.4938 N.3   130  UNL130     -0.3437
    518 H          22.9434    6.4440    3.6766 H     130  UNL130      0.1146
    519 H          21.5472    6.0518    4.4157 H     130  UNL130      0.1146
    520 H          22.7731    4.9821    4.3716 H     130  UNL130      0.1146
    521 N          22.4821    7.3313    7.5115 N.3   131  UNL131     -0.3437
    522 H          22.0213    7.4863    8.4070 H     131  UNL131      0.1146
    523 H          23.2114    8.0399    7.4445 H     131  UNL131      0.1146
    524 H          22.9654    6.4380    7.5952 H     131  UNL131      0.1146
    525 N          22.6242    7.0848   10.9560 N.3   132  UNL132     -0.3437
    526 H          22.6557    6.5570   11.8271 H     132  UNL132      0.1146
    527 H          21.6374    7.2534   10.7653 H     132  UNL132      0.1146
    528 H          23.0295    7.9961   11.1649 H     132  UNL132      0.1146
    529 N          22.4827   11.2330    0.5096 N.3   133  UNL133     -0.3437
    530 H          23.0501   10.6714    1.1429 H     133  UNL133      0.1146
    531 H          23.1131   11.5508   -0.2253 H     133  UNL133      0.1146
    532 H          21.8350   10.5852    0.0633 H     133  UNL133      0.1146
    533 N          22.4362   11.1876    3.8840 N.3   134  UNL134     -0.3437
    534 H          21.9945   11.4782    4.7551 H     134  UNL134      0.1146
    535 H          23.1618   11.8772    3.6933 H     134  UNL134      0.1146
    536 H          22.9237   10.3175    4.0929 H     134  UNL134      0.1146
    537 N          22.6265   10.7209    7.2173 N.3   135  UNL135     -0.3437
    538 H          21.6820   10.7228    7.5998 H     135  UNL135      0.1146
    539 H          22.7661   11.6440    6.8090 H     135  UNL135      0.1146
    540 H          23.2540   10.6704    8.0186 H     135  UNL135      0.1146
    541 N          22.2639   11.0681   10.8118 N.3   136  UNL136     -0.3437
    542 H          21.8151   11.3023   11.6962 H     136  UNL136      0.1146
    543 H          23.0233   11.7376   10.6962 H     136  UNL136      0.1146
    544 H          22.7077   10.1618   10.9535 H     136  UNL136      0.1146
    545 N          22.6543   15.2301   -0.3279 N.3   137  UNL137     -0.3437
    546 H          21.6575   15.3088   -0.1316 H     137  UNL137      0.1146
    547 H          22.8214   14.2483   -0.5437 H     137  UNL137      0.1146
    548 H          22.8106   15.7391   -1.1967 H     137  UNL137      0.1146
    549 N          22.5498   15.0164    4.1758 N.3   138  UNL138     -0.3437
    550 H          23.3175   15.1914    4.8225 H     138  UNL138      0.1146
    551 H          22.6535   15.6981    3.4255 H     138  UNL138      0.1146
    552 H          22.7375   14.1068    3.7565 H     138  UNL138      0.1146
    553 N          22.3491   15.0172    7.2832 N.3   139  UNL139     -0.3437
    554 H          21.9143   15.4112    8.1163 H     139  UNL139      0.1146
    555 H          23.0896   15.6657    7.0194 H     139  UNL139      0.1146
    556 H          22.8175   14.1648    7.5871 H     139  UNL139      0.1146
    557 N          22.7230   15.4342   10.6400 N.3   140  UNL140     -0.3437
    558 H          22.6634   14.4665   10.3265 H     140  UNL140      0.1146
    559 H          21.7623   15.7432   10.7818 H     140  UNL140      0.1146
    560 H          23.1477   15.4039   11.5658 H     140  UNL140      0.1146
    561 N          25.7990   -0.3507    0.6829 N.3   141  UNL141     -0.3437
    562 H          24.9473   -0.0443    0.2149 H     141  UNL141      0.1146
    563 H          25.5029   -1.0091    1.4022 H     141  UNL141      0.1146
    564 H          26.3153   -0.8985   -0.0038 H     141  UNL141      0.1146
    565 N          25.7680   -0.1486    3.8826 N.3   142  UNL142     -0.3437
    566 H          25.7220    0.1399    4.8588 H     142  UNL142      0.1146
    567 H          26.2374    0.6086    3.3878 H     142  UNL142      0.1146
    568 H          26.4073   -0.9416    3.8539 H     142  UNL142      0.1146
    569 N          25.5086   -0.2962    7.4643 N.3   143  UNL143     -0.3437
    570 H          25.3019    0.1346    8.3644 H     143  UNL143      0.1146
    571 H          26.4767   -0.0575    7.2544 H     143  UNL143      0.1146
    572 H          25.4959   -1.3023    7.6250 H     143  UNL143      0.1146
    573 N          25.9698   -0.2790   10.9285 N.3   144  UNL144     -0.3437
    574 H          26.4550    0.6107   10.8212 H     144  UNL144      0.1146
    575 H          25.8304   -0.4039   11.9302 H     144  UNL144      0.1146
    576 H          25.0417   -0.1425   10.5306 H     144  UNL144      0.1146
    577 N          25.7726    3.3193   -0.0951 N.3   145  UNL145     -0.3437
    578 H          25.2728    4.2070   -0.0730 H     145  UNL145      0.1146
    579 H          26.3521    3.3440   -0.9330 H     145  UNL145      0.1146
    580 H          26.4179    3.3406    0.6932 H     145  UNL145      0.1146
    581 N          26.1103    3.7334    3.9471 N.3   146  UNL146     -0.3437
    582 H          26.5609    3.9463    4.8360 H     146  UNL146      0.1146
    583 H          26.3826    2.7792    3.7156 H     146  UNL146      0.1146
    584 H          25.1102    3.7012    4.1397 H     146  UNL146      0.1146
    585 N          25.9633    3.3324    7.3933 N.3   147  UNL147     -0.3437
    586 H          24.9459    3.3381    7.4494 H     147  UNL147      0.1146
    587 H          26.2275    4.2310    6.9921 H     147  UNL147      0.1146
    588 H          26.2978    3.3454    8.3558 H     147  UNL147      0.1146
    589 N          25.8786    3.1929   10.9726 N.3   148  UNL148     -0.3437
    590 H          24.9270    3.1749   11.3366 H     148  UNL148      0.1146
    591 H          25.9488    4.0407   10.4117 H     148  UNL148      0.1146
    592 H          26.4849    3.3384   11.7786 H     148  UNL148      0.1146
    593 N          26.0462    7.1904    0.3958 N.3   149  UNL149     -0.3437
    594 H          26.5434    7.3511    1.2706 H     149  UNL149      0.1146
    595 H          26.1645    6.2008    0.1833 H     149  UNL149      0.1146
    596 H          25.0574    7.3159    0.6075 H     149  UNL149      0.1146
    597 N          25.9909    6.8357    3.8063 N.3   150  UNL150     -0.3437
    598 H          25.0464    6.8377    4.1888 H     150  UNL150      0.1146
    599 H          26.1305    7.7588    3.3980 H     150  UNL150      0.1146
    600 H          26.6183    6.7852    4.6076 H     150  UNL150      0.1146
    601 N          25.7336    7.3264    7.0513 N.3   151  UNL151     -0.3437
    602 H          25.6040    7.8845    7.8939 H     151  UNL151      0.1146
    603 H          26.5986    7.6569    6.6258 H     151  UNL151      0.1146
    604 H          25.9221    6.3769    7.3695 H     151  UNL151      0.1146
    605 N          25.6406    7.3306   10.4851 N.3   152  UNL152     -0.3437
    606 H          25.1931    7.6416   11.3461 H     152  UNL152      0.1146
    607 H          26.3998    7.9874   10.3100 H     152  UNL152      0.1146
    608 H          26.0847    6.4403   10.7050 H     152  UNL152      0.1146
    609 N          25.9927   10.8170   -0.1364 N.3   153  UNL153     -0.3437
    610 H          25.0933   10.6973    0.3275 H     153  UNL153      0.1146
    611 H          26.1243   11.8223   -0.2388 H     153  UNL153      0.1146
    612 H          26.6969   10.5083    0.5323 H     153  UNL153      0.1146
    613 N          25.9153   11.2550    3.9714 N.3   154  UNL154     -0.3437
    614 H          25.4736   11.5264    4.8487 H     154  UNL154      0.1146
    615 H          26.6409   11.9487    3.7959 H     154  UNL154      0.1146
    616 H          26.4028   10.3806    4.1611 H     154  UNL154      0.1146
    617 N          25.8064   11.0810    7.4395 N.3   155  UNL155     -0.3437
    618 H          25.3647   11.1948    8.3507 H     155  UNL155      0.1146
    619 H          26.5320   11.7946    7.3880 H     155  UNL155      0.1146
    620 H          26.2939   10.1868    7.4734 H     155  UNL155      0.1146
    621 N          26.1063   11.0934   10.9009 N.3   156  UNL156     -0.3437
    622 H          25.9547   10.0989   10.7381 H     156  UNL156      0.1146
    623 H          25.1826   11.4984   11.0459 H     156  UNL156      0.1146
    624 H          26.5865   11.1612   11.7971 H     156  UNL156      0.1146
    625 N          25.5638   15.8353    0.4979 N.3   157  UNL157     -0.3437
    626 H          25.1662   14.8984    0.4486 H     157  UNL157      0.1146
    627 H          26.1003   15.8675    1.3637 H     157  UNL157      0.1146
    628 H          26.2458   15.8911   -0.2572 H     157  UNL157      0.1146
    629 N          25.9484   14.9081    3.8248 N.3   158  UNL158     -0.3437
    630 H          25.5058   15.3281    4.6410 H     158  UNL158      0.1146
    631 H          26.6383   15.5842    3.5003 H     158  UNL158      0.1146
    632 H          26.4788   14.1104    4.1723 H     158  UNL158      0.1146
    633 N          26.0233   14.8921    8.0474 N.3   159  UNL159     -0.3437
    634 H          25.1467   15.1604    7.6024 H     159  UNL159      0.1146
    635 H          26.2499   13.9666    7.6862 H     159  UNL159      0.1146
    636 H          26.7324   15.5210    7.6730 H     159  UNL159      0.1146
    637 N          25.7766   15.0389   11.1231 N.3   160  UNL160     -0.3437
    638 H          25.3096   15.3564   11.9713 H     160  UNL160      0.1146
    639 H          26.4909   15.7361   10.9179 H     160  UNL160      0.1146
    640 H          26.2784   14.1899   11.3798 H     160  UNL160      0.1146
    641 N          29.4125   -0.6276    0.2938 N.3   161  UNL161     -0.3437
    642 H          28.4255   -0.3779    0.3367 H     161  UNL161      0.1146
    643 H          29.7575   -0.2581   -0.5910 H     161  UNL161      0.1146
    644 H          29.8716   -0.0839    1.0232 H     161  UNL161      0.1146
    645 N          28.8388    0.1292    4.0743 N.3   162  UNL162     -0.3437
    646 H          28.6318   -0.7459    4.5535 H     162  UNL162      0.1146
    647 H          29.5768    0.5778    4.6152 H     162  UNL162      0.1146
    648 H          29.2615   -0.1309    3.1844 H     162  UNL162      0.1146
    649 N          29.2732   -0.7391    7.6327 N.3   163  UNL163     -0.3437
    650 H          28.7758   -0.8223    6.7473 H     163  UNL163      0.1146
    651 H          30.0049   -1.4479    7.6116 H     163  UNL163      0.1146
    652 H          29.7521    0.1599    7.6023 H     163  UNL163      0.1146
    653 N          29.0572   -0.4003   10.7052 N.3   164  UNL164     -0.3437
    654 H          28.5784   -0.2419   11.5907 H     164  UNL164      0.1146
    655 H          29.8730    0.2103   10.7138 H     164  UNL164      0.1146
    656 H          29.4185   -1.3522   10.7476 H     164  UNL164      0.1146
    657 N          29.0629    3.4894    0.5907 N.3   165  UNL165     -0.3437
    658 H          28.6212    4.0134   -0.1634 H     165  UNL165      0.1146
    659 H          29.7885    2.9240    0.1524 H     165  UNL165      0.1146
    660 H          29.5504    4.1775    1.1628 H     165  UNL165      0.1146
    661 N          29.1771    3.5397    3.6968 N.3   166  UNL166     -0.3437
    662 H          28.7418    3.8399    4.5679 H     166  UNL166      0.1146
    663 H          29.9176    4.2132    3.5061 H     166  UNL166      0.1146
    664 H          29.6453    2.6591    3.9057 H     166  UNL166      0.1146
    665 N          29.1271    3.3445    7.4432 N.3   167  UNL167     -0.3437
    666 H          29.0596    2.9859    8.3946 H     167  UNL167      0.1146
    667 H          28.3897    4.0420    7.3530 H     167  UNL167      0.1146
    668 H          30.0062    3.8578    7.3982 H     167  UNL167      0.1146
    669 N          29.2187    3.4750   11.0679 N.3   168  UNL168     -0.3437
    670 H          28.7528    4.2706   10.6340 H     168  UNL168      0.1146
    671 H          29.9315    3.1716   10.4058 H     168  UNL168      0.1146
    672 H          29.7223    3.8483   11.8713 H     168  UNL168      0.1146
    673 N          29.1808    7.1420    0.2912 N.3   169  UNL169     -0.3437
    674 H          28.7391    7.4326    1.1623 H     169  UNL169      0.1146
    675 H          29.9064    7.8317    0.1005 H     169  UNL169      0.1146
    676 H          29.6683    6.2720    0.5001 H     169  UNL169      0.1146
    677 N          29.1444    7.2151    3.7985 N.3   170  UNL170     -0.3437
    678 H          28.7027    7.4864    4.6758 H     170  UNL170      0.1146
    679 H          29.8700    7.9087    3.6230 H     170  UNL170      0.1146
    680 H          29.6319    6.3406    3.9883 H     170  UNL170      0.1146
    681 N          29.1158    7.5217    7.4615 N.3   171  UNL171     -0.3437
    682 H          28.6827    6.7003    7.8811 H     171  UNL171      0.1146
    683 H          29.8202    7.8384    8.1264 H     171  UNL171      0.1146
    684 H          29.6288    7.1843    6.6483 H     171  UNL171      0.1146
    685 N          29.5079    7.3461   10.7114 N.3   172  UNL172     -0.3437
    686 H          29.5015    6.3577   10.4638 H     172  UNL172      0.1146
    687 H          28.5303    7.6212   10.7948 H     172  UNL172      0.1146
    688 H          29.8953    7.3973   11.6525 H     172  UNL172      0.1146
    689 N          29.0520   11.2001   -0.4722 N.3   173  UNL173     -0.3437
    690 H          28.6123   10.2823   -0.5251 H     173  UNL173      0.1146
    691 H          29.8650   11.0876    0.1318 H     173  UNL173      0.1146
    692 H          29.4184   11.3902   -1.4038 H     173  UNL173      0.1146
    693 N          29.1563   11.1172    3.8579 N.3   174  UNL174     -0.3437
    694 H          28.6706   11.3069    4.7333 H     174  UNL174      0.1146
    695 H          29.7502   11.9271    3.6849 H     174  UNL174      0.1146
    696 H          29.7885   10.3414    4.0498 H     174  UNL174      0.1146
    697 N          29.3738   10.6989    7.2148 N.3   175  UNL175     -0.3437
    698 H          28.4293   10.7009    7.5973 H     175  UNL175      0.1146
    699 H          29.5134   11.6221    6.8066 H     175  UNL175      0.1146
    700 H          30.0013   10.6484    8.0161 H     175  UNL175      0.1146
    701 N          29.1899   11.2368   10.4689 N.3   176  UNL176     -0.3437
    702 H          28.7292   10.9689   11.3374 H     176  UNL176      0.1146
    703 H          29.7622   12.0494   10.6936 H     176  UNL176      0.1146
    704 H          29.8426   10.4845   10.2536 H     176  UNL176      0.1146
    705 N          29.5178   14.8859   -0.0533 N.3   177  UNL177     -0.3437
    706 H          29.9407   15.7609    0.2530 H     177  UNL177      0.1146
    707 H          28.5607   14.8991    0.2962 H     177  UNL177      0.1146
    708 H          29.4471   14.9482   -1.0679 H     177  UNL177      0.1146
    709 N          29.1319   14.8491    3.9940 N.3   178  UNL178     -0.3437
    710 H          28.6392   15.4349    4.6666 H     178  UNL178      0.1146
    711 H          30.0856   15.2059    3.9562 H     178  UNL178      0.1146
    712 H          29.1945   13.9251    4.4191 H     178  UNL178      0.1146
    713 N          29.0931   14.5337    7.4933 N.3   179  UNL179     -0.3437
    714 H          28.6447   14.7075    8.3917 H     179  UNL179      0.1146
    715 H          29.7869   15.2712    7.3784 H     179  UNL179      0.1146
    716 H          29.6193   13.6682    7.6049 H     179  UNL179      0.1146
    717 N          29.4791   14.6750   10.9155 N.3   180  UNL180     -0.3437
    718 H          29.5106   14.1472   11.7866 H     180  UNL180      0.1146
    719 H          28.4924   14.8436   10.7248 H     180  UNL180      0.1146
    720 H          29.8845   15.5863   11.1244 H     180  UNL180      0.1146
    721 N          32.4220    0.0491    0.3167 N.3   181  UNL181     -0.3437
    722 H          31.9970   -0.6893    0.8757 H     181  UNL181      0.1146
    723 H          32.9734    0.6099    0.9648 H     181  UNL181      0.1146
    724 H          33.0928   -0.4129   -0.2957 H     181  UNL181      0.1146
    725 N          31.9939   -0.4332    4.2506 N.3   182  UNL182     -0.3437
    726 H          31.4265    0.0296    3.5419 H     182  UNL182      0.1146
    727 H          32.6326   -1.0446    3.7439 H     182  UNL182      0.1146
    728 H          32.5729    0.2950    4.6664 H     182  UNL182      0.1146
    729 N          32.8768   -0.4599    7.1949 N.3   183  UNL183     -0.3437
    730 H          33.3739   -0.2799    8.0660 H     183  UNL183      0.1146
    731 H          32.9950   -1.4539    7.0042 H     183  UNL183      0.1146
    732 H          31.8879   -0.3297    7.4038 H     183  UNL183      0.1146
    733 N          32.7052    0.0390   10.6104 N.3   184  UNL184     -0.3437
    734 H          32.0024    0.7627   10.7545 H     184  UNL184      0.1146
    735 H          33.0509   -0.2053   11.5373 H     184  UNL184      0.1146
    736 H          32.2004   -0.7798   10.2741 H     184  UNL184      0.1146
    737 N          32.4109    3.1494    0.4597 N.3   185  UNL185     -0.3437
    738 H          31.9528    3.6733   -0.2846 H     185  UNL185      0.1146
    739 H          33.1267    2.5839    0.0055 H     185  UNL185      0.1146
    740 H          32.9109    3.8374    1.0209 H     185  UNL185      0.1146
    741 N          32.5254    3.7624    3.6405 N.3   186  UNL186     -0.3437
    742 H          32.6954    4.2438    4.5224 H     186  UNL186      0.1146
    743 H          33.3754    3.2380    3.4382 H     186  UNL186      0.1146
    744 H          31.8060    3.0672    3.8342 H     186  UNL186      0.1146
    745 N          32.5769    3.4561    7.8999 N.3   187  UNL187     -0.3437
    746 H          31.8749    2.7806    7.6011 H     187  UNL187      0.1146
    747 H          33.3672    3.3382    7.2675 H     187  UNL187      0.1146
    748 H          32.1877    4.3752    7.6946 H     187  UNL187      0.1146
    749 N          32.8236    3.7456   10.9809 N.3   188  UNL188     -0.3437
    750 H          33.3207    3.9256   11.8520 H     188  UNL188      0.1146
    751 H          32.9418    2.7516   10.7902 H     188  UNL188      0.1146
    752 H          31.8347    3.8758   11.1898 H     188  UNL188      0.1146
    753 N          32.5288    7.0851    0.6684 N.3   189  UNL189     -0.3437
    754 H          32.0871    7.6091   -0.0858 H     189  UNL189      0.1146
    755 H          33.2544    6.5196    0.2300 H     189  UNL189      0.1146
    756 H          33.0163    7.7732    1.2404 H     189  UNL189      0.1146
    757 N          32.4302    7.2319    3.7681 N.3   190  UNL190     -0.3437
    758 H          31.9885    7.5225    4.6392 H     190  UNL190      0.1146
    759 H          33.1558    7.9215    3.5774 H     190  UNL190      0.1146
    760 H          32.9177    6.3618    3.9770 H     190  UNL190      0.1146
    761 N          32.4477    7.2995    7.2394 N.3   191  UNL191     -0.3437
    762 H          32.0060    7.5901    8.1105 H     191  UNL191      0.1146
    763 H          33.1733    7.9891    7.0487 H     191  UNL191      0.1146
    764 H          32.9352    6.4294    7.4483 H     191  UNL191      0.1146
    765 N          32.5572    7.2523   10.6807 N.3   192  UNL192     -0.3437
    766 H          32.0927    7.3166   11.5853 H     192  UNL192      0.1146
    767 H          33.2672    7.9832   10.6768 H     192  UNL192      0.1146
    768 H          33.0642    6.3684   10.6875 H     192  UNL192      0.1146
    769 N          32.4929   11.2808    0.4272 N.3   193  UNL193     -0.3437
    770 H          31.7856   11.8551    0.8836 H     193  UNL193      0.1146
    771 H          32.9410   11.8823   -0.2625 H     193  UNL193      0.1146
    772 H          33.2002   11.0905    1.1356 H     193  UNL193      0.1146
    773 N          32.4712   10.9516    3.6796 N.3   194  UNL194     -0.3437
    774 H          31.7565   11.2854    4.3247 H     194  UNL194      0.1146
    775 H          33.2180   11.6443    3.7048 H     194  UNL194      0.1146
    776 H          32.8569   10.1073    4.1001 H     194  UNL194      0.1146
    777 N          32.5378   11.0258    7.1932 N.3   195  UNL195     -0.3437
    778 H          32.0961   11.3164    8.0643 H     195  UNL195      0.1146
    779 H          33.2634   11.7154    7.0025 H     195  UNL195      0.1146
    780 H          33.0253   10.1557    7.4021 H     195  UNL195      0.1146
    781 N          32.8109   11.4795   10.9863 N.3   196  UNL196     -0.3437
    782 H          33.3384   10.7068   11.3901 H     196  UNL196      0.1146
    783 H          33.0984   11.5362   10.0103 H     196  UNL196      0.1146
    784 H          31.8372   11.1792   10.9752 H     196  UNL196      0.1146
    785 N          32.5933   14.4502    0.3655 N.3   197  UNL197     -0.3437
    786 H          31.9425   13.8189   -0.0995 H     197  UNL197      0.1146
    787 H          33.3033   14.6824   -0.3277 H     197  UNL197      0.1146
    788 H          32.0758   15.3112    0.5366 H     197  UNL197      0.1146
    789 N          32.7220   15.0909    3.7140 N.3   198  UNL198     -0.3437
    790 H          32.2996   15.3623    4.6007 H     198  UNL198      0.1146
    791 H          33.4435   15.7845    3.5226 H     198  UNL198      0.1146
    792 H          33.2135   14.2164    3.8929 H     198  UNL198      0.1146
    793 N          32.4357   15.3378    7.4256 N.3   199  UNL199     -0.3437
    794 H          32.1321   14.4804    7.8849 H     199  UNL199      0.1146
    795 H          33.0494   15.8095    8.0884 H     199  UNL199      0.1146
    796 H          33.0301   15.0462    6.6510 H     199  UNL199      0.1146
    797 N          32.4759   14.9400   10.4959 N.3   200  UNL200     -0.3437
    798 H          32.0353   15.2013   11.3768 H     200  UNL200      0.1146
    799 H          33.1501   15.6758   10.2900 H     200  UNL200      0.1146
    800 H          33.0241   14.1040   10.6932 H     200  UNL200      0.1146
    801 N          36.1193    0.0051    0.7108 N.3   201  UNL201     -0.3437
    802 H          36.4339    0.7132    0.0489 H     201  UNL201      0.1146
    803 H          35.1666   -0.2315    0.4372 H     201  UNL201      0.1146
    804 H          36.6799   -0.8246    0.5221 H     201  UNL201      0.1146
    805 N          36.3277   -0.1836    3.8815 N.3   202  UNL202     -0.3437
    806 H          35.8348    0.6920    3.7119 H     202  UNL202      0.1146
    807 H          36.3026   -0.3293    4.8898 H     202  UNL202      0.1146
    808 H          35.7461   -0.9162    3.4774 H     202  UNL202      0.1146
    809 N          35.9469   -0.7974    7.6932 N.3   203  UNL203     -0.3437
    810 H          35.5052   -0.2734    6.9391 H     203  UNL203      0.1146
    811 H          36.6725   -1.3628    7.2549 H     203  UNL203      0.1146
    812 H          36.4344   -0.1093    8.2653 H     203  UNL203      0.1146
    813 N          35.6710   -0.2353   10.8009 N.3   204  UNL204     -0.3437
    814 H          35.2293    0.0744   11.6654 H     204  UNL204      0.1146
    815 H          36.3966    0.4500   10.5951 H     204  UNL204      0.1146
    816 H          36.1585   -1.1006   11.0289 H     204  UNL204      0.1146
    817 N          36.1620    3.3326   -0.2464 N.3   205  UNL205     -0.3437
    818 H          35.2370    3.1905    0.1567 H     205  UNL205      0.1146
    819 H          36.1496    4.2657   -0.6559 H     205  UNL205      0.1146
    820 H          36.8072    3.3800    0.5408 H     205  UNL205      0.1146
    821 N          35.9115    3.2952    4.2015 N.3   206  UNL206     -0.3437
    822 H          35.4698    3.8356    3.4591 H     206  UNL206      0.1146
    823 H          36.6371    2.7394    3.7508 H     206  UNL206      0.1146
    824 H          36.3990    3.9705    4.7885 H     206  UNL206      0.1146
    825 N          35.9492    3.1445    7.6951 N.3   207  UNL207     -0.3437
    826 H          35.5154    3.3343    6.7928 H     207  UNL207      0.1146
    827 H          36.6436    2.4181    7.5257 H     207  UNL207      0.1146
    828 H          36.4741    3.9838    7.9366 H     207  UNL207      0.1146
    829 N          35.9093    3.5377   10.7685 N.3   208  UNL208     -0.3437
    830 H          35.4676    3.5106   11.6864 H     208  UNL208      0.1146
    831 H          36.6349    4.2508   10.8269 H     208  UNL208      0.1146
    832 H          36.3968    2.6489   10.6650 H     208  UNL208      0.1146
    833 N          36.2060    7.3919    0.0508 N.3   209  UNL209     -0.3437
    834 H          36.7031    7.5334    0.9290 H     209  UNL209      0.1146
    835 H          36.3242    6.4072   -0.1833 H     209  UNL209      0.1146
    836 H          35.2172    7.5128    0.2653 H     209  UNL209      0.1146
    837 N          35.7769    7.2285    3.8146 N.3   210  UNL210     -0.3437
    838 H          35.3356    8.1461    3.7728 H     210  UNL210      0.1146
    839 H          36.5024    7.2329    3.0991 H     210  UNL210      0.1146
    840 H          36.2643    7.1919    4.7087 H     210  UNL210      0.1146
    841 N          35.8084    7.5760    7.2966 N.3   211  UNL211     -0.3437
    842 H          36.2739    7.9720    8.1120 H     211  UNL211      0.1146
    843 H          36.4753    6.9282    6.8795 H     211  UNL211      0.1146
    844 H          35.0481    7.0020    7.6583 H     211  UNL211      0.1146
    845 N          36.3204    7.3851   10.7111 N.3   212  UNL212     -0.3437
    846 H          36.8159    7.6497   11.5612 H     212  UNL212      0.1146
    847 H          36.6031    6.4274   10.5078 H     212  UNL212      0.1146
    848 H          35.3342    7.3391   10.9636 H     212  UNL212      0.1146
    849 N          36.1948   11.3966    0.0723 N.3   213  UNL213     -0.3437
    850 H          35.3006   11.1310    0.4824 H     213  UNL213      0.1146
    851 H          36.0263   12.2680   -0.4285 H     213  UNL213      0.1146
    852 H          36.8027   11.6354    0.8545 H     213  UNL213      0.1146
    853 N          35.7823   10.9848    3.8127 N.3   214  UNL214     -0.3437
    854 H          35.3406   11.2944    4.6772 H     214  UNL214      0.1146
    855 H          36.5079   11.6700    3.6069 H     214  UNL214      0.1146
    856 H          36.2698   10.1195    4.0406 H     214  UNL214      0.1146
    857 N          35.8294   11.1123    7.2754 N.3   215  UNL215     -0.3437
    858 H          35.4168   11.2542    8.1962 H     215  UNL215      0.1146
    859 H          36.5994   11.7762    7.2073 H     215  UNL215      0.1146
    860 H          36.2572   10.1877    7.2987 H     215  UNL215      0.1146
    861 N          35.8986   10.9961   10.7696 N.3   216  UNL216     -0.3437
    862 H          35.4352   11.9007   10.6968 H     216  UNL216      0.1146
    863 H          36.6087   10.9846   10.0389 H     216  UNL216      0.1146
    864 H          36.4055   11.0105   11.6535 H     216  UNL216      0.1146
    865 N          35.9366   14.8633    0.0984 N.3   217  UNL217     -0.3437
    866 H          36.5665   15.5189   -0.3618 H     217  UNL217      0.1146
    867 H          36.5327   14.1717    0.5510 H     217  UNL217      0.1146
    868 H          35.4898   15.3846    0.8514 H     217  UNL217      0.1146
    869 N          35.9873   15.1833    4.3348 N.3   218  UNL218     -0.3437
    870 H          36.3605   14.4515    4.9378 H     218  UNL218      0.1146
    871 H          36.7694   15.5047    3.7661 H     218  UNL218      0.1146
    872 H          35.3459   14.7189    3.6935 H     218  UNL218      0.1146
    873 N          36.2012   15.1338    7.4700 N.3   219  UNL219     -0.3437
    874 H          35.4999   14.6015    6.9570 H     219  UNL219      0.1146
    875 H          35.6926   15.6542    8.1833 H     219  UNL219      0.1146
    876 H          36.7638   14.4474    7.9708 H     219  UNL219      0.1146
    877 N          36.1732   14.8497   10.9617 N.3   220  UNL220     -0.3437
    878 H          36.0618   14.4326   11.8847 H     220  UNL220      0.1146
    879 H          35.2568   15.2148   10.7060 H     220  UNL220      0.1146
    880 H          36.7732   15.6631   11.0916 H     220  UNL220      0.1146
@<TRIPOS>BOND
     1     1     2    1
     2     1     3    1
     3     1     4    1
     4     5     6    1
     5     5     7    1
     6     5     8    1
     7     9    10    1
     8     9    11    1
     9     9    12    1
    10    13    14    1
    11    13    15    1
    12    13    16    1
    13    17    18    1
    14    17    19    1
    15    17    20    1
    16    21    22    1
    17    21    23    1
    18    21    24    1
    19    25    26    1
    20    25    27    1
    21    25    28    1
    22    29    30    1
    23    29    31    1
    24    29    32    1
    25    33    34    1
    26    33    35    1
    27    33    36    1
    28    37    38    1
    29    37    39    1
    30    37    40    1
    31    41    42    1
    32    41    43    1
    33    41    44    1
    34    45    46    1
    35    45    47    1
    36    45    48    1
    37    49    50    1
    38    49    51    1
    39    49    52    1
    40    53    54    1
    41    53    55    1
    42    53    56    1
    43    57    58    1
    44    57    59    1
    45    57    60    1
    46    61    62    1
    47    61    63    1
    48    61    64    1
    49    65    66    1
    50    65    67    1
    51    65    68    1
    52    69    70    1
    53    69    71    1
    54    69    72    1
    55    73    74    1
    56    73    75    1
    57    73    76    1
    58    77    78    1
    59    77    79    1
    60    77    80    1
    61    81    82    1
    62    81    83    1
    63    81    84    1
    64    85    86    1
    65    85    87    1
    66    85    88    1
    67    89    90    1
    68    89    91    1
    69    89    92    1
    70    93    94    1
    71    93    95    1
    72    93    96    1
    73    97    98    1
    74    97    99    1
    75    97   100    1
    76   101   102    1
    77   101   103    1
    78   101   104    1
    79   105   106    1
    80   105   107    1
    81   105   108    1
    82   109   110    1
    83   109   111    1
    84   109   112    1
    85   113   114    1
    86   113   115    1
    87   113   116    1
    88   117   118    1
    89   117   119    1
    90   117   120    1
    91   121   122    1
    92   121   123    1
    93   121   124    1
    94   125   126    1
    95   125   127    1
    96   125   128    1
    97   129   130    1
    98   129   131    1
    99   129   132    1
   100   133   134    1
   101   133   135    1
   102   133   136    1
   103   137   138    1
   104   137   139    1
   105   137   140    1
   106   141   142    1
   107   141   143    1
   108   141   144    1
   109   145   146    1
   110   145   147    1
   111   145   148    1
   112   149   150    1
   113   149   151    1
   114   149   152    1
   115   153   154    1
   116   153   155    1
   117   153   156    1
   118   157   158    1
   119   157   159    1
   120   157   160    1
   121   161   162    1
   122   161   163    1
   123   161   164    1
   124   165   166    1
   125   165   167    1
   126   165   168    1
   127   169   170    1
   128   169   171    1
   129   169   172    1
   130   173   174    1
   131   173   175    1
   132   173   176    1
   133   177   178    1
   134   177   179    1
   135   177   180    1
   136   181   182    1
   137   181   183    1
   138   181   184    1
   139   185   186    1
   140   185   187    1
   141   185   188    1
   142   189   190    1
   143   189   191    1
   144   189   192    1
   145   193   194    1
   146   193   195    1
   147   193   196    1
   148   197   198    1
   149   197   199    1
   150   197   200    1
   151   201   202    1
   152   201   203    1
   153   201   204    1
   154   205   206    1
   155   205   207    1
   156   205   208    1
   157   209   210    1
   158   209   211    1
   159   209   212    1
   160   213   214    1
   161   213   215    1
   162   213   216    1
   163   217   218    1
   164   217   219    1
   165   217   220    1
   166   221   222    1
   167   221   223    1
   168   221   224    1
   169   225   226    1
   170   225   227    1
   171   225   228    1
   172   229   230    1
   173   229   231    1
   174   229   232    1
   175   233   234    1
   176   233   235    1
   177   233   236    1
   178   237   238    1
   179   237   239    1
   180   237   240    1
   181   241   242    1
   182   241   243    1
   183   241   244    1
   184   245   246    1
   185   245   247    1
   186   245   248    1
   187   249   250    1
   188   249   251    1
   189   249   252    1
   190   253   254    1
   191   253   255    1
   192   253   256    1
   193   257   258    1
   194   257   259    1
   195   257   260    1
   196   261   262    1
   197   261   263    1
   198   261   264    1
   199   265   266    1
   200   265   267    1
   201   265   268    1
   202   269   270    1
   203   269   271    1
   204   269   272    1
   205   273   274    1
   206   273   275    1
   207   273   276    1
   208   277   278    1
   209   277   279    1
   210   277   280    1
   211   281   282    1
   212   281   283    1
   213   281   284    1
   214   285   286    1
   215   285   287    1
   216   285   288    1
   217   289   290    1
   218   289   291    1
   219   289   292    1
   220   293   294    1
   221   293   295    1
   222   293   296    1
   223   297   298    1
   224   297   299    1
   225   297   300    1
   226   301   302    1
   227   301   303    1
   228   301   304    1
   229   305   306    1
   230   305   307    1
   231   305   308    1
   232   309   310    1
   233   309   311    1
   234   309   312    1
   235   313   314    1
   236   313   315    1
   237   313   316    1
   238   317   318    1
   239   317   319    1
   240   317   320    1
   241   321   322    1
   242   321   323    1
   243   321   324    1
   244   325   326    1
   245   325   327    1
   246   325   328    1
   247   329   330    1
   248   329   331    1
   249   329   332    1
   250   333   334    1
   251   333   335    1
   252   333   336    1
   253   337   338    1
   254   337   339    1
   255   337   340    1
   256   341   342    1
   257   341   343    1
   258   341   344    1
   259   345   346    1
   260   345   347    1
   261   345   348    1
   262   349   350    1
   263   349   351    1
   264   349   352    1
   265   353   354    1
   266   353   355    1
   267   353   356    1
   268   357   358    1
   269   357   359    1
   270   357   360    1
   271   361   362    1
   272   361   363    1
   273   361   364    1
   274   365   366    1
   275   365   367    1
   276   365   368    1
   277   369   370    1
   278   369   371    1
   279   369   372    1
   280   373   374    1
   281   373   375    1
   282   373   376    1
   283   377   378    1
   284   377   379    1
   285   377   380    1
   286   381   382    1
   287   381   383    1
   288   381   384    1
   289   385   386    1
   290   385   387    1
   291   385   388    1
   292   389   390    1
   293   389   391    1
   294   389   392    1
   295   393   394    1
   296   393   395    1
   297   393   396    1
   298   397   398    1
   299   397   399    1
   300   397   400    1
   301   401   402    1
   302   401   403    1
   303   401   404    1
   304   405   406    1
   305   405   407    1
   306   405   408    1
   307   409   410    1
   308   409   411    1
   309   409   412    1
   310   413   414    1
   311   413   415    1
   312   413   416    1
   313   417   418    1
   314   417   419    1
   315   417   420    1
   316   421   422    1
   317   421   423    1
   318   421   424    1
   319   425   426    1
   320   425   427    1
   321   425   428    1
   322   429   430    1
   323   429   431    1
   324   429   432    1
   325   433   434    1
   326   433   435    1
   327   433   436    1
   328   437   438    1
   329   437   439    1
   330   437   440    1
   331   441   442    1
   332   441   443    1
   333   441   444    1
   334   445   446    1
   335   445   447    1
   336   445   448    1
   337   449   450    1
   338   449   451    1
   339   449   452    1
   340   453   454    1
   341   453   455    1
   342   453   456    1
   343   457   458    1
   344   457   459    1
   345   457   460    1
   346   461   462    1
   347   461   463    1
   348   461   464    1
   349   465   466    1
   350   465   467    1
   351   465   468    1
   352   469   470    1
   353   469   471    1
   354   469   472    1
   355   473   474    1
   356   473   475    1
   357   473   476    1
   358   477   478    1
   359   477   479    1
   360   477   480    1
   361   481   482    1
   362   481   483    1
   363   481   484    1
   364   485   486    1
   365   485   487    1
   366   485   488    1
   367   489   490    1
   368   489   491    1
   369   489   492    1
   370   493   494    1
   371   493   495    1
   372   493   496    1
   373   497   498    1
   374   497   499    1
   375   497   500    1
   376   501   502    1
   377   501   503    1
   378   501   504    1
   379   505   506    1
   380   505   507    1
   381   505   508    1
   382   509   510    1
   383   509   511    1
   384   509   512    1
   385   513   514    1
   386   513   515    1
   387   513   516    1
   388   517   518    1
   389   517   519    1
   390   517   520    1
   391   521   522    1
   392   521   523    1
   393   521   524    1
   394   525   526    1
   395   525   527    1
   396   525   528    1
   397   529   530    1
   398   529   531    1
   399   529   532    1
   400   533   534    1
   401   533   535    1
   402   533   536    1
   403   537   538    1
   404   537   539    1
   405   537   540    1
   406   541   542    1
   407   541   543    1
   408   541   544    1
   409   545   546    1
   410   545   547    1
   411   545   548    1
   412   549   550    1
   413   549   551    1
   414   549   552    1
   415   553   554    1
   416   553   555    1
   417   553   556    1
   418   557   558    1
   419   557   559    1
   420   557   560    1
   421   561   562    1
   422   561   563    1
   423   561   564    1
   424   565   566    1
   425   565   567    1
   426   565   568    1
   427   569   570    1
   428   569   571    1
   429   569   572    1
   430   573   574    1
   431   573   575    1
   432   573   576    1
   433   577   578    1
   434   577   579    1
   435   577   580    1
   436   581   582    1
   437   581   583    1
   438   581   584    1
   439   585   586    1
   440   585   587    1
   441   585   588    1
   442   589   590    1
   443   589   591    1
   444   589   592    1
   445   593   594    1
   446   593   595    1
   447   593   596    1
   448   597   598    1
   449   597   599    1
   450   597   600    1
   451   601   602    1
   452   601   603    1
   453   601   604    1
   454   605   606    1
   455   605   607    1
   456   605   608    1
   457   609   610    1
   458   609   611    1
   459   609   612    1
   460   613   614    1
   461   613   615    1
   462   613   616    1
   463   617   618    1
   464   617   619    1
   465   617   620    1
   466   621   622    1
   467   621   623    1
   468   621   624    1
   469   625   626    1
   470   625   627    1
   471   625   628    1
   472   629   630    1
   473   629   631    1
   474   629   632    1
   475   633   634    1
   476   633   635    1
   477   633   636    1
   478   637   638    1
   479   637   639    1
   480   637   640    1
   481   641   642    1
   482   641   643    1
   483   641   644    1
   484   645   646    1
   485   645   647    1
   486   645   648    1
   487   649   650    1
   488   649   651    1
   489   649   652    1
   490   653   654    1
   491   653   655    1
   492   653   656    1
   493   657   658    1
   494   657   659    1
   495   657   660    1
   496   661   662    1
   497   661   663    1
   498   661   664    1
   499   665   666    1
   500   665   667    1
   501   665   668    1
   502   669   670    1
   503   669   671    1
   504   669   672    1
   505   673   674    1
   506   673   675    1
   507   673   676    1
   508   677   678    1
   509   677   679    1
   510   677   680    1
   511   681   682    1
   512   681   683    1
   513   681   684    1
   514   685   686    1
   515   685   687    1
   516   685   688    1
   517   689   690    1
   518   689   691    1
   519   689   692    1
   520   693   694    1
   521   693   695    1
   522   693   696    1
   523   697   698    1
   524   697   699    1
   525   697   700    1
   526   701   702    1
   527   701   703    1
   528   701   704    1
   529   705   706    1
   530   705   707    1
   531   705   708    1
   532   709   710    1
   533   709   711    1
   534   709   712    1
   535   713   714    1
   536   713   715    1
   537   713   716    1
   538   717   718    1
   539   717   719    1
   540   717   720    1
   541   721   722    1
   542   721   723    1
   543   721   724    1
   544   725   726    1
   545   725   727    1
   546   725   728    1
   547   729   730    1
   548   729   731    1
   549   729   732    1
   550   733   734    1
   551   733   735    1
   552   733   736    1
   553   737   738    1
   554   737   739    1
   555   737   740    1
   556   741   742    1
   557   741   743    1
   558   741   744    1
   559   745   746    1
   560   745   747    1
   561   745   748    1
   562   749   750    1
   563   749   751    1
   564   749   752    1
   565   753   754    1
   566   753   755    1
   567   753   756    1
   568   757   758    1
   569   757   759    1
   570   757   760    1
   571   761   762    1
   572   761   763    1
   573   761   764    1
   574   765   766    1
   575   765   767    1
   576   765   768    1
   577   769   770    1
   578   769   771    1
   579   769   772    1
   580   773   774    1
   581   773   775    1
   582   773   776    1
   583   777   778    1
   584   777   779    1
   585   777   780    1
   586   781   782    1
   587   781   783    1
   588   781   784    1
   589   785   786    1
   590   785   787    1
   591   785   788    1
   592   789   790    1
   593   789   791    1
   594   789   792    1
   595   793   794    1
   596   793   795    1
   597   793   796    1
   598   797   798    1
   599   797   799    1
   600   797   800    1
   601   801   802    1
   602   801   803    1
   603   801   804    1
   604   805   806    1
   605   805   807    1
   606   805   808    1
   607   809   810    1
   608   809   811    1
   609   809   812    1
   610   813   814    1
   611   813   815    1
   612   813   816    1
   613   817   818    1
   614   817   819    1
   615   817   820    1
   616   821   822    1
   617   821   823    1
   618   821   824    1
   619   825   826    1
   620   825   827    1
   621   825   828    1
   622   829   830    1
   623   829   831    1
   624   829   832    1
   625   833   834    1
   626   833   835    1
   627   833   836    1
   628   837   838    1
   629   837   839    1
   630   837   840    1
   631   841   842    1
   632   841   843    1
   633   841   844    1
   634   845   846    1
   635   845   847    1
   636   845   848    1
   637   849   850    1
   638   849   851    1
   639   849   852    1
   640   853   854    1
   641   853   855    1
   642   853   856    1
   643   857   858    1
   644   857   859    1
   645   857   860    1
   646   861   862    1
   647   861   863    1
   648   861   864    1
   649   865   866    1
   650   865   867    1
   651   865   868    1
   652   869   870    1
   653   869   871    1
   654   869   872    1
   655   873   874    1
   656   873   875    1
   657   873   876    1
   658   877   878    1
   659   877   879    1
   660   877   880    1
