@<TRIPOS>MOLECULE
*****
 660 495 0 0 0
SMALL
GASTEIGER

@<TRIPOS>ATOM
      1 N           0.2332    0.0813    2.9010 N.3     1  UNL1       -0.3437
      2 H          -0.3883    0.4042    3.6412 H       1  UNL1        0.1146
      3 H           1.1393   -0.0710    3.3416 H       1  UNL1        0.1146
      4 H          -0.1065   -0.8408    2.6314 H       1  UNL1        0.1146
      5 N           0.0266   -0.2682    7.8613 N.3     2  UNL2       -0.3437
      6 H          -0.4151    0.2558    7.1072 H       2  UNL2        0.1146
      7 H           0.7522   -0.8337    7.4230 H       2  UNL2        0.1146
      8 H           0.5141    0.4199    8.4334 H       2  UNL2        0.1146
      9 N           0.0266    0.0880   10.1060 N.3     3  UNL3       -0.3437
     10 H          -0.4151   -0.7838    9.8174 H       3  UNL3        0.1146
     11 H           0.7522   -0.1719   10.7726 H       3  UNL3        0.1146
     12 H           0.5141    0.4414    9.2839 H       3  UNL3        0.1146
     13 N           0.0266    0.0880   12.3947 N.3     4  UNL4       -0.3437
     14 H          -0.4151   -0.7838   12.1062 H       4  UNL4        0.1146
     15 H           0.7522   -0.1719   13.0613 H       4  UNL4        0.1146
     16 H           0.5141    0.4414   11.5726 H       4  UNL4        0.1146
     17 N           0.0266   -0.1341   14.3501 N.3     5  UNL5       -0.3437
     18 H          -0.4151    0.1565   15.2212 H       5  UNL5        0.1146
     19 H           0.7522    0.5555   14.1594 H       5  UNL5        0.1146
     20 H           0.5141   -1.0042   14.5590 H       5  UNL5        0.1146
     21 N          -0.0099   -0.2269   16.7186 N.3     6  UNL6       -0.3437
     22 H           0.1179   -0.6101   17.6541 H       6  UNL6        0.1146
     23 H          -0.1050    0.7806   16.8383 H       6  UNL6        0.1146
     24 H           0.8747   -0.3698   16.2334 H       6  UNL6        0.1146
     25 N           0.0266    0.0880   19.2608 N.3     7  UNL7       -0.3437
     26 H          -0.4151   -0.7838   18.9723 H       7  UNL7        0.1146
     27 H           0.7522   -0.1719   19.9274 H       7  UNL7        0.1146
     28 H           0.5141    0.4414   18.4387 H       7  UNL7        0.1146
     29 N           0.0266    0.0880   21.5495 N.3     8  UNL8       -0.3437
     30 H          -0.4151   -0.7838   21.2610 H       8  UNL8        0.1146
     31 H           0.7522   -0.1719   22.2161 H       8  UNL8        0.1146
     32 H           0.5141    0.4414   20.7274 H       8  UNL8        0.1146
     33 N           0.0266   -0.1341   23.5049 N.3     9  UNL9       -0.3437
     34 H          -0.4151    0.1565   24.3760 H       9  UNL9        0.1146
     35 H           0.7522    0.5555   23.3142 H       9  UNL9        0.1146
     36 H           0.5141   -1.0042   23.7138 H       9  UNL9        0.1146
     37 N           0.2332    0.0813   25.7882 N.3    10  UNL10      -0.3437
     38 H          -0.3883    0.4042   26.5284 H      10  UNL10       0.1146
     39 H           1.1393   -0.0710   26.2287 H      10  UNL10       0.1146
     40 H          -0.1065   -0.8408   25.5185 H      10  UNL10       0.1146
     41 N           0.2332    0.0813   28.0769 N.3    11  UNL11      -0.3437
     42 H          -0.3883    0.4042   28.8171 H      11  UNL11       0.1146
     43 H           1.1393   -0.0710   28.5175 H      11  UNL11       0.1146
     44 H          -0.1065   -0.8408   27.8072 H      11  UNL11       0.1146
     45 N           0.0266    0.3097    0.6178 N.3    12  UNL12      -0.3437
     46 H          -0.4151    0.6003    1.4889 H      12  UNL12       0.1146
     47 H           0.7522    0.9993    0.4271 H      12  UNL12       0.1146
     48 H           0.5141   -0.5604    0.8267 H      12  UNL12       0.1146
     49 N           0.0266    2.5318    3.2398 N.3    13  UNL13      -0.3437
     50 H          -0.4151    1.6600    2.9513 H      13  UNL13       0.1146
     51 H           0.7522    2.2719    3.9064 H      13  UNL13       0.1146
     52 H           0.5141    2.8852    2.4177 H      13  UNL13       0.1146
     53 N           0.0266    0.5318    5.5285 N.3    14  UNL14      -0.3437
     54 H          -0.4151   -0.3400    5.2400 H      14  UNL14       0.1146
     55 H           0.7522    0.2719    6.1951 H      14  UNL14       0.1146
     56 H           0.5141    0.8852    4.7064 H      14  UNL14       0.1146
     57 N          -0.0099    2.2169    7.5637 N.3    15  UNL15      -0.3437
     58 H           0.1179    1.8337    8.4993 H      15  UNL15       0.1146
     59 H          -0.1050    3.2244    7.6835 H      15  UNL15       0.1146
     60 H           0.8747    2.0740    7.0785 H      15  UNL15       0.1146
     61 N           0.0266    2.5318   10.1060 N.3    16  UNL16      -0.3437
     62 H          -0.4151    1.6600    9.8174 H      16  UNL16       0.1146
     63 H           0.7522    2.2719   10.7726 H      16  UNL16       0.1146
     64 H           0.5141    2.8852    9.2839 H      16  UNL16       0.1146
     65 N           0.0266    2.5318   12.3947 N.3    17  UNL17      -0.3437
     66 H          -0.4151    1.6600   12.1062 H      17  UNL17       0.1146
     67 H           0.7522    2.2719   13.0613 H      17  UNL17       0.1146
     68 H           0.5141    2.8852   11.5726 H      17  UNL17       0.1146
     69 N          -0.0099    2.2169   14.4299 N.3    18  UNL18      -0.3437
     70 H           0.1179    1.8337   15.3654 H      18  UNL18       0.1146
     71 H          -0.1050    3.2244   14.5496 H      18  UNL18       0.1146
     72 H           0.8747    2.0740   13.9446 H      18  UNL18       0.1146
     73 N           0.0266    2.1756   17.0162 N.3    19  UNL19      -0.3437
     74 H          -0.4151    2.6996   16.2621 H      19  UNL19       0.1146
     75 H           0.7522    1.6101   16.5779 H      19  UNL19       0.1146
     76 H           0.5141    2.8637   17.5883 H      19  UNL19       0.1146
     77 N           0.1567    2.3097   19.4374 N.3    20  UNL20      -0.3437
     78 H           1.1190    2.6003   19.2699 H      20  UNL20       0.1146
     79 H          -0.4303    2.9993   18.9702 H      20  UNL20       0.1146
     80 H           0.0323    1.4396   18.9218 H      20  UNL20       0.1146
     81 N           0.0266    2.3097   21.2162 N.3    21  UNL21      -0.3437
     82 H          -0.4151    2.6003   22.0873 H      21  UNL21       0.1146
     83 H           0.7522    2.9993   21.0255 H      21  UNL21       0.1146
     84 H           0.5141    1.4396   21.4251 H      21  UNL21       0.1146
     85 N           0.2638    2.1186   23.5333 N.3    22  UNL22      -0.3437
     86 H          -0.6807    2.1205   23.9159 H      22  UNL22       0.1146
     87 H           0.4034    3.0417   23.1251 H      22  UNL22       0.1146
     88 H           0.8912    2.0681   24.3347 H      22  UNL22       0.1146
     89 N           0.0266    2.1756   26.1711 N.3    23  UNL23      -0.3437
     90 H          -0.4151    2.6996   25.4169 H      23  UNL23       0.1146
     91 H           0.7522    1.6101   25.7327 H      23  UNL23       0.1146
     92 H           0.5141    2.8637   26.7431 H      23  UNL23       0.1146
     93 N           0.0266    2.5318   28.4157 N.3    24  UNL24      -0.3437
     94 H          -0.4151    1.6600   28.1272 H      24  UNL24       0.1146
     95 H           0.7522    2.2719   29.0823 H      24  UNL24       0.1146
     96 H           0.5141    2.8852   27.5936 H      24  UNL24       0.1146
     97 N          -0.0572    2.3267   31.4898 N.3    25  UNL25      -0.3437
     98 H           0.0805    1.7332   32.3065 H      25  UNL25       0.1146
     99 H           0.2219    3.2647   31.7739 H      25  UNL25       0.1146
    100 H           0.6325    2.0244   30.8033 H      25  UNL25       0.1146
    101 N           0.0266    4.7535    0.6178 N.3    26  UNL26      -0.3437
    102 H          -0.4151    5.0441    1.4889 H      26  UNL26       0.1146
    103 H           0.7522    5.4431    0.4271 H      26  UNL26       0.1146
    104 H           0.5141    3.8834    0.8267 H      26  UNL26       0.1146
    105 N           0.0266    4.7535    5.1952 N.3    27  UNL27      -0.3437
    106 H          -0.4151    5.0441    6.0663 H      27  UNL27       0.1146
    107 H           0.7522    5.4431    5.0045 H      27  UNL27       0.1146
    108 H           0.5141    3.8834    5.4041 H      27  UNL27       0.1146
    109 N           0.0266    4.7535    9.7726 N.3    28  UNL28      -0.3437
    110 H          -0.4151    5.0441   10.6437 H      28  UNL28       0.1146
    111 H           0.7522    5.4431    9.5819 H      28  UNL28       0.1146
    112 H           0.5141    3.8834    9.9815 H      28  UNL28       0.1146
    113 N           0.0266    4.7535   28.0823 N.3    29  UNL29      -0.3437
    114 H          -0.4151    5.0441   28.9534 H      29  UNL29       0.1146
    115 H           0.7522    5.4431   27.8916 H      29  UNL29       0.1146
    116 H           0.5141    3.8834   28.2912 H      29  UNL29       0.1146
    117 N           0.0266    4.7535   30.3711 N.3    30  UNL30      -0.3437
    118 H          -0.4151    5.0441   31.2422 H      30  UNL30       0.1146
    119 H           0.7522    5.4431   30.1804 H      30  UNL30       0.1146
    120 H           0.5141    3.8834   30.5800 H      30  UNL30       0.1146
    121 N           2.2207    0.0880    0.9511 N.3    31  UNL31      -0.3437
    122 H           1.7790   -0.7838    0.6626 H      31  UNL31       0.1146
    123 H           2.9463   -0.1719    1.6177 H      31  UNL31       0.1146
    124 H           2.7082    0.4414    0.1290 H      31  UNL31       0.1146
    125 N           2.2207   -0.1341    2.9065 N.3    32  UNL32      -0.3437
    126 H           1.7790    0.1565    3.7776 H      32  UNL32       0.1146
    127 H           2.9463    0.5555    2.7158 H      32  UNL32       0.1146
    128 H           2.7082   -1.0042    3.1154 H      32  UNL32       0.1146
    129 N           2.2207    0.0880    5.5285 N.3    33  UNL33      -0.3437
    130 H           1.7790   -0.7838    5.2400 H      33  UNL33       0.1146
    131 H           2.9463   -0.1719    6.1951 H      33  UNL33       0.1146
    132 H           2.7082    0.4414    4.7064 H      33  UNL33       0.1146
    133 N           2.2207    0.0880   10.1060 N.3    34  UNL34      -0.3437
    134 H           1.7790   -0.7838    9.8174 H      34  UNL34       0.1146
    135 H           2.9463   -0.1719   10.7726 H      34  UNL34       0.1146
    136 H           2.7082    0.4414    9.2839 H      34  UNL34       0.1146
    137 N           2.2207    0.0880   12.3947 N.3    35  UNL35      -0.3437
    138 H           1.7790   -0.7838   12.1062 H      35  UNL35       0.1146
    139 H           2.9463   -0.1719   13.0613 H      35  UNL35       0.1146
    140 H           2.7082    0.4414   11.5726 H      35  UNL35       0.1146
    141 N           2.2207   -0.1341   14.3501 N.3    36  UNL36      -0.3437
    142 H           1.7790    0.1565   15.2212 H      36  UNL36       0.1146
    143 H           2.9463    0.5555   14.1594 H      36  UNL36       0.1146
    144 H           2.7082   -1.0042   14.5590 H      36  UNL36       0.1146
    145 N           2.2207   -0.2682   17.0162 N.3    37  UNL37      -0.3437
    146 H           1.7790    0.2558   16.2621 H      37  UNL37       0.1146
    147 H           2.9463   -0.8337   16.5779 H      37  UNL37       0.1146
    148 H           2.7082    0.4199   17.5883 H      37  UNL37       0.1146
    149 N           2.2207    0.0880   21.5495 N.3    38  UNL38      -0.3437
    150 H           1.7790   -0.7838   21.2610 H      38  UNL38       0.1146
    151 H           2.9463   -0.1719   22.2161 H      38  UNL38       0.1146
    152 H           2.7082    0.4414   20.7274 H      38  UNL38       0.1146
    153 N           2.2207    0.0880   23.8382 N.3    39  UNL39      -0.3437
    154 H           1.7790   -0.7838   23.5497 H      39  UNL39       0.1146
    155 H           2.9463   -0.1719   24.5048 H      39  UNL39       0.1146
    156 H           2.7082    0.4414   23.0161 H      39  UNL39       0.1146
    157 N           2.2207   -0.1341   25.7936 N.3    40  UNL40      -0.3437
    158 H           1.7790    0.1565   26.6647 H      40  UNL40       0.1146
    159 H           2.9463    0.5555   25.6029 H      40  UNL40       0.1146
    160 H           2.7082   -1.0042   26.0025 H      40  UNL40       0.1146
    161 N           2.2207   -0.2682   28.4598 N.3    41  UNL41      -0.3437
    162 H           1.7790    0.2558   27.7056 H      41  UNL41       0.1146
    163 H           2.9463   -0.8337   28.0214 H      41  UNL41       0.1146
    164 H           2.7082    0.4199   29.0318 H      41  UNL41       0.1146
    165 N           2.2207    2.5318    0.9511 N.3    42  UNL42      -0.3437
    166 H           1.7790    1.6600    0.6626 H      42  UNL42       0.1146
    167 H           2.9463    2.2719    1.6177 H      42  UNL42       0.1146
    168 H           2.7082    2.8852    0.1290 H      42  UNL42       0.1146
    169 N           2.2207    2.5318    3.2398 N.3    43  UNL43      -0.3437
    170 H           1.7790    1.6600    2.9513 H      43  UNL43       0.1146
    171 H           2.9463    2.2719    3.9064 H      43  UNL43       0.1146
    172 H           2.7082    2.8852    2.4177 H      43  UNL43       0.1146
    173 N           2.2207    2.5318    5.5285 N.3    44  UNL44      -0.3437
    174 H           1.7790    1.6600    5.2400 H      44  UNL44       0.1146
    175 H           2.9463    2.2719    6.1951 H      44  UNL44       0.1146
    176 H           2.7082    2.8852    4.7064 H      44  UNL44       0.1146
    177 N           2.2207    0.1756    7.8613 N.3    45  UNL45      -0.3437
    178 H           1.7790    0.6996    7.1072 H      45  UNL45       0.1146
    179 H           2.9463   -0.3899    7.4230 H      45  UNL45       0.1146
    180 H           2.7082    0.8637    8.4334 H      45  UNL45       0.1146
    181 N           2.2207    2.5318   10.1060 N.3    46  UNL46      -0.3437
    182 H           1.7790    1.6600    9.8174 H      46  UNL46       0.1146
    183 H           2.9463    2.2719   10.7726 H      46  UNL46       0.1146
    184 H           2.7082    2.8852    9.2839 H      46  UNL46       0.1146
    185 N           2.2207    2.5318   12.3947 N.3    47  UNL47      -0.3437
    186 H           1.7790    1.6600   12.1062 H      47  UNL47       0.1146
    187 H           2.9463    2.2719   13.0613 H      47  UNL47       0.1146
    188 H           2.7082    2.8852   11.5726 H      47  UNL47       0.1146
    189 N           2.2207    2.3097   14.3501 N.3    48  UNL48      -0.3437
    190 H           1.7790    2.6003   15.2212 H      48  UNL48       0.1146
    191 H           2.9463    2.9993   14.1594 H      48  UNL48       0.1146
    192 H           2.7082    1.4396   14.5590 H      48  UNL48       0.1146
    193 N           2.4273    2.5251   16.6333 N.3    49  UNL49      -0.3437
    194 H           1.8059    2.8480   17.3735 H      49  UNL49       0.1146
    195 H           3.3335    2.3728   17.0739 H      49  UNL49       0.1146
    196 H           2.0876    1.6030   16.3636 H      49  UNL49       0.1146
    197 N           2.2207    0.1756   19.3049 N.3    50  UNL50      -0.3437
    198 H           1.7790    0.6996   18.5508 H      50  UNL50       0.1146
    199 H           2.9463   -0.3899   18.8666 H      50  UNL50       0.1146
    200 H           2.7082    0.8637   19.8770 H      50  UNL50       0.1146
    201 N           2.2207    2.1756   21.5936 N.3    51  UNL51      -0.3437
    202 H           1.7790    2.6996   20.8395 H      51  UNL51       0.1146
    203 H           2.9463    1.6101   21.1553 H      51  UNL51       0.1146
    204 H           2.7082    2.8637   22.1657 H      51  UNL51       0.1146
    205 N           2.2207    2.5318   23.8382 N.3    52  UNL52      -0.3437
    206 H           1.7790    1.6600   23.5497 H      52  UNL52       0.1146
    207 H           2.9463    2.2719   24.5048 H      52  UNL52       0.1146
    208 H           2.7082    2.8852   23.0161 H      52  UNL52       0.1146
    209 N           2.1843    2.2169   25.8735 N.3    53  UNL53      -0.3437
    210 H           2.3120    1.8337   26.8090 H      53  UNL53       0.1146
    211 H           2.0892    3.2244   25.9932 H      53  UNL53       0.1146
    212 H           3.0689    2.0740   25.3882 H      53  UNL53       0.1146
    213 N           2.2207    2.5318   28.4157 N.3    54  UNL54      -0.3437
    214 H           1.7790    1.6600   28.1272 H      54  UNL54       0.1146
    215 H           2.9463    2.2719   29.0823 H      54  UNL54       0.1146
    216 H           2.7082    2.8852   27.5936 H      54  UNL54       0.1146
    217 N           2.2207    0.5318   30.7044 N.3    55  UNL55      -0.3437
    218 H           1.7790   -0.3400   30.4159 H      55  UNL55       0.1146
    219 H           2.9463    0.2719   31.3710 H      55  UNL55       0.1146
    220 H           2.7082    0.8852   29.8823 H      55  UNL55       0.1146
    221 N           2.2207    4.7535    0.6178 N.3    56  UNL56      -0.3437
    222 H           1.7790    5.0441    1.4889 H      56  UNL56       0.1146
    223 H           2.9463    5.4431    0.4271 H      56  UNL56       0.1146
    224 H           2.7082    3.8834    0.8267 H      56  UNL56       0.1146
    225 N           2.2207    4.7535    2.9065 N.3    57  UNL57      -0.3437
    226 H           1.7790    5.0441    3.7776 H      57  UNL57       0.1146
    227 H           2.9463    5.4431    2.7158 H      57  UNL57       0.1146
    228 H           2.7082    3.8834    3.1154 H      57  UNL57       0.1146
    229 N           2.2207    4.7535    7.4839 N.3    58  UNL58      -0.3437
    230 H           1.7790    5.0441    8.3550 H      58  UNL58       0.1146
    231 H           2.9463    5.4431    7.2932 H      58  UNL58       0.1146
    232 H           2.7082    3.8834    7.6928 H      58  UNL58       0.1146
    233 N           2.2207    4.7535   12.0613 N.3    59  UNL59      -0.3437
    234 H           1.7790    5.0441   12.9324 H      59  UNL59       0.1146
    235 H           2.9463    5.4431   11.8706 H      59  UNL59       0.1146
    236 H           2.7082    3.8834   12.2702 H      59  UNL59       0.1146
    237 N           2.5069    4.9520   14.3501 N.3    60  UNL60      -0.3437
    238 H           3.0041    5.1320   15.2212 H      60  UNL60       0.1146
    239 H           2.6252    3.9580   14.1594 H      60  UNL60       0.1146
    240 H           1.5181    5.0822   14.5590 H      60  UNL60       0.1146
    241 N           2.2207    4.7535   16.6388 N.3    61  UNL61      -0.3437
    242 H           1.7790    5.0441   17.5099 H      61  UNL61       0.1146
    243 H           2.9463    5.4431   16.4481 H      61  UNL61       0.1146
    244 H           2.7082    3.8834   16.8477 H      61  UNL61       0.1146
    245 N           2.2207    4.7535   18.9275 N.3    62  UNL62      -0.3437
    246 H           1.7790    5.0441   19.7986 H      62  UNL62       0.1146
    247 H           2.9463    5.4431   18.7368 H      62  UNL62       0.1146
    248 H           2.7082    3.8834   19.1364 H      62  UNL62       0.1146
    249 N           2.2207    4.7535   21.2162 N.3    63  UNL63      -0.3437
    250 H           1.7790    5.0441   22.0873 H      63  UNL63       0.1146
    251 H           2.9463    5.4431   21.0255 H      63  UNL63       0.1146
    252 H           2.7082    3.8834   21.4251 H      63  UNL63       0.1146
    253 N           2.2207    4.7535   23.5049 N.3    64  UNL64      -0.3437
    254 H           1.7790    5.0441   24.3760 H      64  UNL64       0.1146
    255 H           2.9463    5.4431   23.3142 H      64  UNL64       0.1146
    256 H           2.7082    3.8834   23.7138 H      64  UNL64       0.1146
    257 N           2.2207    4.7535   25.7936 N.3    65  UNL65      -0.3437
    258 H           1.7790    5.0441   26.6647 H      65  UNL65       0.1146
    259 H           2.9463    5.4431   25.6029 H      65  UNL65       0.1146
    260 H           2.7082    3.8834   26.0025 H      65  UNL65       0.1146
    261 N           2.2207    4.7535   30.3711 N.3    66  UNL66      -0.3437
    262 H           1.7790    5.0441   31.2422 H      66  UNL66       0.1146
    263 H           2.9463    5.4431   30.1804 H      66  UNL66       0.1146
    264 H           2.7082    3.8834   30.5800 H      66  UNL66       0.1146
    265 N           4.4149    0.0880    0.9511 N.3    67  UNL67      -0.3437
    266 H           3.9732   -0.7838    0.6626 H      67  UNL67       0.1146
    267 H           5.1405   -0.1719    1.6177 H      67  UNL67       0.1146
    268 H           4.9024    0.4414    0.1290 H      67  UNL67       0.1146
    269 N           4.4149    0.0880    3.2398 N.3    68  UNL68      -0.3437
    270 H           3.9732   -0.7838    2.9513 H      68  UNL68       0.1146
    271 H           5.1405   -0.1719    3.9064 H      68  UNL68       0.1146
    272 H           4.9024    0.4414    2.4177 H      68  UNL68       0.1146
    273 N           4.4149    0.0880    5.5285 N.3    69  UNL69      -0.3437
    274 H           3.9732   -0.7838    5.2400 H      69  UNL69       0.1146
    275 H           5.1405   -0.1719    6.1951 H      69  UNL69       0.1146
    276 H           4.9024    0.4414    4.7064 H      69  UNL69       0.1146
    277 N           4.4149    0.0880    7.8172 N.3    70  UNL70      -0.3437
    278 H           3.9732   -0.7838    7.5287 H      70  UNL70       0.1146
    279 H           5.1405   -0.1719    8.4838 H      70  UNL70       0.1146
    280 H           4.9024    0.4414    6.9951 H      70  UNL70       0.1146
    281 N           4.4149    0.0880   12.3947 N.3    71  UNL71      -0.3437
    282 H           3.9732   -0.7838   12.1062 H      71  UNL71       0.1146
    283 H           5.1405   -0.1719   13.0613 H      71  UNL71       0.1146
    284 H           4.9024    0.4414   11.5726 H      71  UNL71       0.1146
    285 N           4.4149    0.0880   14.6834 N.3    72  UNL72      -0.3437
    286 H           3.9732   -0.7838   14.3949 H      72  UNL72       0.1146
    287 H           5.1405   -0.1719   15.3500 H      72  UNL72       0.1146
    288 H           4.9024    0.4414   13.8613 H      72  UNL72       0.1146
    289 N           4.4149    0.0880   16.9721 N.3    73  UNL73      -0.3437
    290 H           3.9732   -0.7838   16.6836 H      73  UNL73       0.1146
    291 H           5.1405   -0.1719   17.6387 H      73  UNL73       0.1146
    292 H           4.9024    0.4414   16.1500 H      73  UNL73       0.1146
    293 N           4.4149    0.0880   19.2608 N.3    74  UNL74      -0.3437
    294 H           3.9732   -0.7838   18.9723 H      74  UNL74       0.1146
    295 H           5.1405   -0.1719   19.9274 H      74  UNL74       0.1146
    296 H           4.9024    0.4414   18.4387 H      74  UNL74       0.1146
    297 N           4.4149    0.0880   21.5495 N.3    75  UNL75      -0.3437
    298 H           3.9732   -0.7838   21.2610 H      75  UNL75       0.1146
    299 H           5.1405   -0.1719   22.2161 H      75  UNL75       0.1146
    300 H           4.9024    0.4414   20.7274 H      75  UNL75       0.1146
    301 N           4.3784   -0.2269   23.5847 N.3    76  UNL76      -0.3437
    302 H           4.5062   -0.6101   24.5203 H      76  UNL76       0.1146
    303 H           4.2833    0.7806   23.7045 H      76  UNL76       0.1146
    304 H           5.2630   -0.3698   23.0995 H      76  UNL76       0.1146
    305 N           4.4149   -0.2682   26.1711 N.3    77  UNL77      -0.3437
    306 H           3.9732    0.2558   25.4169 H      77  UNL77       0.1146
    307 H           5.1405   -0.8337   25.7327 H      77  UNL77       0.1146
    308 H           4.9024    0.4199   26.7431 H      77  UNL77       0.1146
    309 N           4.4149    0.0880   28.4157 N.3    78  UNL78      -0.3437
    310 H           3.9732   -0.7838   28.1272 H      78  UNL78       0.1146
    311 H           5.1405   -0.1719   29.0823 H      78  UNL78       0.1146
    312 H           4.9024    0.4414   27.5936 H      78  UNL78       0.1146
    313 N           4.4149    2.5318    0.9511 N.3    79  UNL79      -0.3437
    314 H           3.9732    1.6600    0.6626 H      79  UNL79       0.1146
    315 H           5.1405    2.2719    1.6177 H      79  UNL79       0.1146
    316 H           4.9024    2.8852    0.1290 H      79  UNL79       0.1146
    317 N           4.4149    2.5318    3.2398 N.3    80  UNL80      -0.3437
    318 H           3.9732    1.6600    2.9513 H      80  UNL80       0.1146
    319 H           5.1405    2.2719    3.9064 H      80  UNL80       0.1146
    320 H           4.9024    2.8852    2.4177 H      80  UNL80       0.1146
    321 N           4.4149    2.5318    5.5285 N.3    81  UNL81      -0.3437
    322 H           3.9732    1.6600    5.2400 H      81  UNL81       0.1146
    323 H           5.1405    2.2719    6.1951 H      81  UNL81       0.1146
    324 H           4.9024    2.8852    4.7064 H      81  UNL81       0.1146
    325 N           4.4149    2.5318    7.8172 N.3    82  UNL82      -0.3437
    326 H           3.9732    1.6600    7.5287 H      82  UNL82       0.1146
    327 H           5.1405    2.2719    8.4838 H      82  UNL82       0.1146
    328 H           4.9024    2.8852    6.9951 H      82  UNL82       0.1146
    329 N           4.4149    0.1756   10.1501 N.3    83  UNL83      -0.3437
    330 H           3.9732    0.6996    9.3959 H      83  UNL83       0.1146
    331 H           5.1405   -0.3899    9.7117 H      83  UNL83       0.1146
    332 H           4.9024    0.8637   10.7221 H      83  UNL83       0.1146
    333 N           4.3784    2.2169   12.1412 N.3    84  UNL84      -0.3437
    334 H           4.5062    1.8337   13.0767 H      84  UNL84       0.1146
    335 H           4.2833    3.2244   12.2609 H      84  UNL84       0.1146
    336 H           5.2630    2.0740   11.6559 H      84  UNL84       0.1146
    337 N           4.3311    2.3267   14.4688 N.3    85  UNL85      -0.3437
    338 H           4.4688    1.7332   15.2855 H      85  UNL85       0.1146
    339 H           4.6102    3.2647   14.7529 H      85  UNL85       0.1146
    340 H           5.0208    2.0244   13.7823 H      85  UNL85       0.1146
    341 N           4.4149    2.1756   17.0162 N.3    86  UNL86      -0.3437
    342 H           3.9732    2.6996   16.2621 H      86  UNL86       0.1146
    343 H           5.1405    1.6101   16.5779 H      86  UNL86       0.1146
    344 H           4.9024    2.8637   17.5883 H      86  UNL86       0.1146
    345 N           4.4149    2.5318   19.2608 N.3    87  UNL87      -0.3437
    346 H           3.9732    1.6600   18.9723 H      87  UNL87       0.1146
    347 H           5.1405    2.2719   19.9274 H      87  UNL87       0.1146
    348 H           4.9024    2.8852   18.4387 H      87  UNL87       0.1146
    349 N           4.4149    2.5318   21.5495 N.3    88  UNL88      -0.3437
    350 H           3.9732    1.6600   21.2610 H      88  UNL88       0.1146
    351 H           5.1405    2.2719   22.2161 H      88  UNL88       0.1146
    352 H           4.9024    2.8852   20.7274 H      88  UNL88       0.1146
    353 N           4.3784    2.2169   23.5847 N.3    89  UNL89      -0.3437
    354 H           4.5062    1.8337   24.5203 H      89  UNL89       0.1146
    355 H           4.2833    3.2244   23.7045 H      89  UNL89       0.1146
    356 H           5.2630    2.0740   23.0995 H      89  UNL89       0.1146
    357 N           4.4149    2.1756   26.1711 N.3    90  UNL90      -0.3437
    358 H           3.9732    2.6996   25.4169 H      90  UNL90       0.1146
    359 H           5.1405    1.6101   25.7327 H      90  UNL90       0.1146
    360 H           4.9024    2.8637   26.7431 H      90  UNL90       0.1146
    361 N           4.4149    2.5318   28.4157 N.3    91  UNL91      -0.3437
    362 H           3.9732    1.6600   28.1272 H      91  UNL91       0.1146
    363 H           5.1405    2.2719   29.0823 H      91  UNL91       0.1146
    364 H           4.9024    2.8852   27.5936 H      91  UNL91       0.1146
    365 N           4.5450    0.3097   31.8809 N.3    92  UNL92      -0.3437
    366 H           5.5072    0.6003   31.7135 H      92  UNL92       0.1146
    367 H           3.9580    0.9993   31.4138 H      92  UNL92       0.1146
    368 H           4.4206   -0.5604   31.3654 H      92  UNL92       0.1146
    369 N           4.4149    4.7535    0.6178 N.3    93  UNL93      -0.3437
    370 H           3.9732    5.0441    1.4889 H      93  UNL93       0.1146
    371 H           5.1405    5.4431    0.4271 H      93  UNL93       0.1146
    372 H           4.9024    3.8834    0.8267 H      93  UNL93       0.1146
    373 N           4.4149    4.7535    5.1952 N.3    94  UNL94      -0.3437
    374 H           3.9732    5.0441    6.0663 H      94  UNL94       0.1146
    375 H           5.1405    5.4431    5.0045 H      94  UNL94       0.1146
    376 H           4.9024    3.8834    5.4041 H      94  UNL94       0.1146
    377 N           4.4149    4.7535    9.7726 N.3    95  UNL95      -0.3437
    378 H           3.9732    5.0441   10.6437 H      95  UNL95       0.1146
    379 H           5.1405    5.4431    9.5819 H      95  UNL95       0.1146
    380 H           4.9024    3.8834    9.9815 H      95  UNL95       0.1146
    381 N           4.4149    4.7535   14.3501 N.3    96  UNL96      -0.3437
    382 H           3.9732    5.0441   15.2212 H      96  UNL96       0.1146
    383 H           5.1405    5.4431   14.1594 H      96  UNL96       0.1146
    384 H           4.9024    3.8834   14.5590 H      96  UNL96       0.1146
    385 N           4.4149    4.7535   18.9275 N.3    97  UNL97      -0.3437
    386 H           3.9732    5.0441   19.7986 H      97  UNL97       0.1146
    387 H           5.1405    5.4431   18.7368 H      97  UNL97       0.1146
    388 H           4.9024    3.8834   19.1364 H      97  UNL97       0.1146
    389 N           4.4149    4.7535   28.0823 N.3    98  UNL98      -0.3437
    390 H           3.9732    5.0441   28.9534 H      98  UNL98       0.1146
    391 H           5.1405    5.4431   27.8916 H      98  UNL98       0.1146
    392 H           4.9024    3.8834   28.2912 H      98  UNL98       0.1146
    393 N           4.4149    4.7535   30.3711 N.3    99  UNL99      -0.3437
    394 H           3.9732    5.0441   31.2422 H      99  UNL99       0.1146
    395 H           5.1405    5.4431   30.1804 H      99  UNL99       0.1146
    396 H           4.9024    3.8834   30.5800 H      99  UNL99       0.1146
    397 N           6.6090    0.0880    0.9511 N.3   100  UNL100     -0.3437
    398 H           6.1673   -0.7838    0.6626 H     100  UNL100      0.1146
    399 H           7.3346   -0.1719    1.6177 H     100  UNL100      0.1146
    400 H           7.0965    0.4414    0.1290 H     100  UNL100      0.1146
    401 N           6.6090    0.0880    3.2398 N.3   101  UNL101     -0.3437
    402 H           6.1673   -0.7838    2.9513 H     101  UNL101      0.1146
    403 H           7.3346   -0.1719    3.9064 H     101  UNL101      0.1146
    404 H           7.0965    0.4414    2.4177 H     101  UNL101      0.1146
    405 N           6.6090    0.0880    5.5285 N.3   102  UNL102     -0.3437
    406 H           6.1673   -0.7838    5.2400 H     102  UNL102      0.1146
    407 H           7.3346   -0.1719    6.1951 H     102  UNL102      0.1146
    408 H           7.0965    0.4414    4.7064 H     102  UNL102      0.1146
    409 N           6.6090    0.0880    7.8172 N.3   103  UNL103     -0.3437
    410 H           6.1673   -0.7838    7.5287 H     103  UNL103      0.1146
    411 H           7.3346   -0.1719    8.4838 H     103  UNL103      0.1146
    412 H           7.0965    0.4414    6.9951 H     103  UNL103      0.1146
    413 N           6.6090    0.0880   10.1060 N.3   104  UNL104     -0.3437
    414 H           6.1673   -0.7838    9.8174 H     104  UNL104      0.1146
    415 H           7.3346   -0.1719   10.7726 H     104  UNL104      0.1146
    416 H           7.0965    0.4414    9.2839 H     104  UNL104      0.1146
    417 N           6.6090    0.0880   12.3947 N.3   105  UNL105     -0.3437
    418 H           6.1673   -0.7838   12.1062 H     105  UNL105      0.1146
    419 H           7.3346   -0.1719   13.0613 H     105  UNL105      0.1146
    420 H           7.0965    0.4414   11.5726 H     105  UNL105      0.1146
    421 N           6.5725   -0.2269   14.4299 N.3   106  UNL106     -0.3437
    422 H           6.7003   -0.6101   15.3654 H     106  UNL106      0.1146
    423 H           6.4774    0.7806   14.5496 H     106  UNL106      0.1146
    424 H           7.4571   -0.3698   13.9446 H     106  UNL106      0.1146
    425 N           6.6090    0.0880   16.9721 N.3   107  UNL107     -0.3437
    426 H           6.1673   -0.7838   16.6836 H     107  UNL107      0.1146
    427 H           7.3346   -0.1719   17.6387 H     107  UNL107      0.1146
    428 H           7.0965    0.4414   16.1500 H     107  UNL107      0.1146
    429 N           6.6090    0.0880   19.2608 N.3   108  UNL108     -0.3437
    430 H           6.1673   -0.7838   18.9723 H     108  UNL108      0.1146
    431 H           7.3346   -0.1719   19.9274 H     108  UNL108      0.1146
    432 H           7.0965    0.4414   18.4387 H     108  UNL108      0.1146
    433 N           6.8156    0.0813   25.7882 N.3   109  UNL109     -0.3437
    434 H           6.1941    0.4042   26.5284 H     109  UNL109      0.1146
    435 H           7.7218   -0.0710   26.2287 H     109  UNL109      0.1146
    436 H           6.4759   -0.8408   25.5185 H     109  UNL109      0.1146
    437 N           6.5725   -0.2269   28.1622 N.3   110  UNL110     -0.3437
    438 H           6.7003   -0.6101   29.0977 H     110  UNL110      0.1146
    439 H           6.4774    0.7806   28.2819 H     110  UNL110      0.1146
    440 H           7.4571   -0.3698   27.6769 H     110  UNL110      0.1146
    441 N           6.5252   -0.1171   31.4898 N.3   111  UNL111     -0.3437
    442 H           6.6629   -0.7106   32.3065 H     111  UNL111      0.1146
    443 H           6.8043    0.8209   31.7739 H     111  UNL111      0.1146
    444 H           7.2150   -0.4194   30.8033 H     111  UNL111      0.1146
    445 N           6.5725    2.2169    0.6976 N.3   112  UNL112     -0.3437
    446 H           6.7003    1.8337    1.6331 H     112  UNL112      0.1146
    447 H           6.4774    3.2244    0.8173 H     112  UNL112      0.1146
    448 H           7.4571    2.0740    0.2124 H     112  UNL112      0.1146
    449 N           6.6090    2.5318    3.2398 N.3   113  UNL113     -0.3437
    450 H           6.1673    1.6600    2.9513 H     113  UNL113      0.1146
    451 H           7.3346    2.2719    3.9064 H     113  UNL113      0.1146
    452 H           7.0965    2.8852    2.4177 H     113  UNL113      0.1146
    453 N           6.6090    2.5318    5.5285 N.3   114  UNL114     -0.3437
    454 H           6.1673    1.6600    5.2400 H     114  UNL114      0.1146
    455 H           7.3346    2.2719    6.1951 H     114  UNL114      0.1146
    456 H           7.0965    2.8852    4.7064 H     114  UNL114      0.1146
    457 N           6.6090    2.5318    7.8172 N.3   115  UNL115     -0.3437
    458 H           6.1673    1.6600    7.5287 H     115  UNL115      0.1146
    459 H           7.3346    2.2719    8.4838 H     115  UNL115      0.1146
    460 H           7.0965    2.8852    6.9951 H     115  UNL115      0.1146
    461 N           6.6090    2.5318   10.1060 N.3   116  UNL116     -0.3437
    462 H           6.1673    1.6600    9.8174 H     116  UNL116      0.1146
    463 H           7.3346    2.2719   10.7726 H     116  UNL116      0.1146
    464 H           7.0965    2.8852    9.2839 H     116  UNL116      0.1146
    465 N           6.6090    2.3097   12.0613 N.3   117  UNL117     -0.3437
    466 H           6.1673    2.6003   12.9324 H     117  UNL117      0.1146
    467 H           7.3346    2.9993   11.8706 H     117  UNL117      0.1146
    468 H           7.0965    1.4396   12.2702 H     117  UNL117      0.1146
    469 N           6.6090    2.3097   14.3501 N.3   118  UNL118     -0.3437
    470 H           6.1673    2.6003   15.2212 H     118  UNL118      0.1146
    471 H           7.3346    2.9993   14.1594 H     118  UNL118      0.1146
    472 H           7.0965    1.4396   14.5590 H     118  UNL118      0.1146
    473 N           6.8156    2.5251   16.6333 N.3   119  UNL119     -0.3437
    474 H           6.1941    2.8480   17.3735 H     119  UNL119      0.1146
    475 H           7.7218    2.3728   17.0739 H     119  UNL119      0.1146
    476 H           6.4759    1.6030   16.3636 H     119  UNL119      0.1146
    477 N           6.5725    2.2169   19.0073 N.3   120  UNL120     -0.3437
    478 H           6.7003    1.8337   19.9428 H     120  UNL120      0.1146
    479 H           6.4774    3.2244   19.1270 H     120  UNL120      0.1146
    480 H           7.4571    2.0740   18.5221 H     120  UNL120      0.1146
    481 N           6.6090    0.3097   21.2162 N.3   121  UNL121     -0.3437
    482 H           6.1673    0.6003   22.0873 H     121  UNL121      0.1146
    483 H           7.3346    0.9993   21.0255 H     121  UNL121      0.1146
    484 H           7.0965   -0.5604   21.4251 H     121  UNL121      0.1146
    485 N           6.9393    0.1992   23.5049 N.3   122  UNL122     -0.3437
    486 H           6.9708   -0.3286   24.3760 H     122  UNL122      0.1146
    487 H           5.9526    0.3678   23.3142 H     122  UNL122      0.1146
    488 H           7.3447    1.1105   23.7138 H     122  UNL122      0.1146
    489 N           6.8156    2.5251   25.7882 N.3   123  UNL123     -0.3437
    490 H           6.1941    2.8480   26.5284 H     123  UNL123      0.1146
    491 H           7.7218    2.3728   26.2287 H     123  UNL123      0.1146
    492 H           6.4759    1.6030   25.5185 H     123  UNL123      0.1146
    493 N           6.5725    2.2169   28.1622 N.3   124  UNL124     -0.3437
    494 H           6.7003    1.8337   29.0977 H     124  UNL124      0.1146
    495 H           6.4774    3.2244   28.2819 H     124  UNL124      0.1146
    496 H           7.4571    2.0740   27.6769 H     124  UNL124      0.1146
    497 N           4.9393    2.1992   30.3711 N.3   125  UNL125     -0.3437
    498 H           4.9708    1.6714   31.2422 H     125  UNL125      0.1146
    499 H           3.9526    2.3678   30.1804 H     125  UNL125      0.1146
    500 H           5.3447    3.1105   30.5800 H     125  UNL125      0.1146
    501 N           6.6090    4.7535    2.9065 N.3   126  UNL126     -0.3437
    502 H           6.1673    5.0441    3.7776 H     126  UNL126      0.1146
    503 H           7.3346    5.4431    2.7158 H     126  UNL126      0.1146
    504 H           7.0965    3.8834    3.1154 H     126  UNL126      0.1146
    505 N           6.6090    4.7535    7.4839 N.3   127  UNL127     -0.3437
    506 H           6.1673    5.0441    8.3550 H     127  UNL127      0.1146
    507 H           7.3346    5.4431    7.2932 H     127  UNL127      0.1146
    508 H           7.0965    3.8834    7.6928 H     127  UNL127      0.1146
    509 N           6.6090    4.7535   16.6388 N.3   128  UNL128     -0.3437
    510 H           6.1673    5.0441   17.5099 H     128  UNL128      0.1146
    511 H           7.3346    5.4431   16.4481 H     128  UNL128      0.1146
    512 H           7.0965    3.8834   16.8477 H     128  UNL128      0.1146
    513 N           6.6090    4.7535   21.2162 N.3   129  UNL129     -0.3437
    514 H           6.1673    5.0441   22.0873 H     129  UNL129      0.1146
    515 H           7.3346    5.4431   21.0255 H     129  UNL129      0.1146
    516 H           7.0965    3.8834   21.4251 H     129  UNL129      0.1146
    517 N           6.6090    4.7535   23.5049 N.3   130  UNL130     -0.3437
    518 H           6.1673    5.0441   24.3760 H     130  UNL130      0.1146
    519 H           7.3346    5.4431   23.3142 H     130  UNL130      0.1146
    520 H           7.0965    3.8834   23.7138 H     130  UNL130      0.1146
    521 N           6.6090    4.7535   25.7936 N.3   131  UNL131     -0.3437
    522 H           6.1673    5.0441   26.6647 H     131  UNL131      0.1146
    523 H           7.3346    5.4431   25.6029 H     131  UNL131      0.1146
    524 H           7.0965    3.8834   26.0025 H     131  UNL131      0.1146
    525 N           6.6090    4.7535   30.3711 N.3   132  UNL132     -0.3437
    526 H           6.1673    5.0441   31.2422 H     132  UNL132      0.1146
    527 H           7.3346    5.4431   30.1804 H     132  UNL132      0.1146
    528 H           7.0965    3.8834   30.5800 H     132  UNL132      0.1146
    529 N           8.8031    0.0880    3.2398 N.3   133  UNL133     -0.3437
    530 H           8.3614   -0.7838    2.9513 H     133  UNL133      0.1146
    531 H           9.5287   -0.1719    3.9064 H     133  UNL133      0.1146
    532 H           9.2906    0.4414    2.4177 H     133  UNL133      0.1146
    533 N           8.8031    0.0880    5.5285 N.3   134  UNL134     -0.3437
    534 H           8.3614   -0.7838    5.2400 H     134  UNL134      0.1146
    535 H           9.5287   -0.1719    6.1951 H     134  UNL134      0.1146
    536 H           9.2906    0.4414    4.7064 H     134  UNL134      0.1146
    537 N           8.8031    0.0880    7.8172 N.3   135  UNL135     -0.3437
    538 H           8.3614   -0.7838    7.5287 H     135  UNL135      0.1146
    539 H           9.5287   -0.1719    8.4838 H     135  UNL135      0.1146
    540 H           9.2906    0.4414    6.9951 H     135  UNL135      0.1146
    541 N           8.8031    0.0880   12.3947 N.3   136  UNL136     -0.3437
    542 H           8.3614   -0.7838   12.1062 H     136  UNL136      0.1146
    543 H           9.5287   -0.1719   13.0613 H     136  UNL136      0.1146
    544 H           9.2906    0.4414   11.5726 H     136  UNL136      0.1146
    545 N           8.8031   -0.1341   14.3501 N.3   137  UNL137     -0.3437
    546 H           8.3614    0.1565   15.2212 H     137  UNL137      0.1146
    547 H           9.5287    0.5555   14.1594 H     137  UNL137      0.1146
    548 H           9.2906   -1.0042   14.5590 H     137  UNL137      0.1146
    549 N           8.7667   -0.2269   16.7186 N.3   138  UNL138     -0.3437
    550 H           8.8944   -0.6101   17.6541 H     138  UNL138      0.1146
    551 H           8.6716    0.7806   16.8383 H     138  UNL138      0.1146
    552 H           9.6513   -0.3698   16.2334 H     138  UNL138      0.1146
    553 N           9.0097    0.0813   23.4995 N.3   139  UNL139     -0.3437
    554 H           8.3883    0.4042   24.2397 H     139  UNL139      0.1146
    555 H           9.9159   -0.0710   23.9400 H     139  UNL139      0.1146
    556 H           8.6701   -0.8408   23.2298 H     139  UNL139      0.1146
    557 N           8.8031   -0.2682   28.4598 N.3   140  UNL140     -0.3437
    558 H           8.3614    0.2558   27.7056 H     140  UNL140      0.1146
    559 H           9.5287   -0.8337   28.0214 H     140  UNL140      0.1146
    560 H           9.2906    0.4199   29.0318 H     140  UNL140      0.1146
    561 N           8.8031    0.5318    0.9511 N.3   141  UNL141     -0.3437
    562 H           8.3614   -0.3400    0.6626 H     141  UNL141      0.1146
    563 H           9.5287    0.2719    1.6177 H     141  UNL141      0.1146
    564 H           9.2906    0.8852    0.1290 H     141  UNL141      0.1146
    565 N           8.8031    2.5318    3.2398 N.3   142  UNL142     -0.3437
    566 H           8.3614    1.6600    2.9513 H     142  UNL142      0.1146
    567 H           9.5287    2.2719    3.9064 H     142  UNL142      0.1146
    568 H           9.2906    2.8852    2.4177 H     142  UNL142      0.1146
    569 N           8.8031    2.5318    5.5285 N.3   143  UNL143     -0.3437
    570 H           8.3614    1.6600    5.2400 H     143  UNL143      0.1146
    571 H           9.5287    2.2719    6.1951 H     143  UNL143      0.1146
    572 H           9.2906    2.8852    4.7064 H     143  UNL143      0.1146
    573 N           8.8031    2.5318    7.8172 N.3   144  UNL144     -0.3437
    574 H           8.3614    1.6600    7.5287 H     144  UNL144      0.1146
    575 H           9.5287    2.2719    8.4838 H     144  UNL144      0.1146
    576 H           9.2906    2.8852    6.9951 H     144  UNL144      0.1146
    577 N           8.8031    0.1756   10.1501 N.3   145  UNL145     -0.3437
    578 H           8.3614    0.6996    9.3959 H     145  UNL145      0.1146
    579 H           9.5287   -0.3899    9.7117 H     145  UNL145      0.1146
    580 H           9.2906    0.8637   10.7221 H     145  UNL145      0.1146
    581 N           8.8031    2.1756   12.4388 N.3   146  UNL146     -0.3437
    582 H           8.3614    2.6996   11.6846 H     146  UNL146      0.1146
    583 H           9.5287    1.6101   12.0004 H     146  UNL146      0.1146
    584 H           9.2906    2.8637   13.0108 H     146  UNL146      0.1146
    585 N           8.8031    2.3097   14.3501 N.3   147  UNL147     -0.3437
    586 H           8.3614    2.6003   15.2212 H     147  UNL147      0.1146
    587 H           9.5287    2.9993   14.1594 H     147  UNL147      0.1146
    588 H           9.2906    1.4396   14.5590 H     147  UNL147      0.1146
    589 N           8.8031    2.1756   17.0162 N.3   148  UNL148     -0.3437
    590 H           8.3614    2.6996   16.2621 H     148  UNL148      0.1146
    591 H           9.5287    1.6101   16.5779 H     148  UNL148      0.1146
    592 H           9.2906    2.8637   17.5883 H     148  UNL148      0.1146
    593 N           9.1367    0.0837   19.2075 N.3   149  UNL149     -0.3437
    594 H           8.1490    0.0519   19.4564 H     149  UNL149      0.1146
    595 H           9.1697    0.3371   18.2211 H     149  UNL149      0.1146
    596 H           9.5286    0.8762   19.7142 H     149  UNL149      0.1146
    597 N           8.8031    2.5318   21.5495 N.3   150  UNL150     -0.3437
    598 H           8.3614    1.6600   21.2610 H     150  UNL150      0.1146
    599 H           9.5287    2.2719   22.2161 H     150  UNL150      0.1146
    600 H           9.2906    2.8852   20.7274 H     150  UNL150      0.1146
    601 N           8.7667    2.2169   23.5847 N.3   151  UNL151     -0.3437
    602 H           8.8944    1.8337   24.5203 H     151  UNL151      0.1146
    603 H           8.6716    3.2244   23.7045 H     151  UNL151      0.1146
    604 H           9.6513    2.0740   23.0995 H     151  UNL151      0.1146
    605 N           8.8031    2.1756   26.1711 N.3   152  UNL152     -0.3437
    606 H           8.3614    2.6996   25.4169 H     152  UNL152      0.1146
    607 H           9.5287    1.6101   25.7327 H     152  UNL152      0.1146
    608 H           9.2906    2.8637   26.7431 H     152  UNL152      0.1146
    609 N           8.9333    2.3097   28.5922 N.3   153  UNL153     -0.3437
    610 H           9.8955    2.6003   28.4248 H     153  UNL153      0.1146
    611 H           8.3463    2.9993   28.1250 H     153  UNL153      0.1146
    612 H           8.8089    1.4396   28.0766 H     153  UNL153      0.1146
    613 N           7.1335    0.1992   31.3711 N.3   154  UNL154     -0.3437
    614 H           7.1650   -0.3286   32.2422 H     154  UNL154      0.1146
    615 H           6.1467    0.3678   31.1804 H     154  UNL154      0.1146
    616 H           7.5388    1.1105   31.5800 H     154  UNL154      0.1146
    617 N           8.8031    4.7535    0.6178 N.3   155  UNL155     -0.3437
    618 H           8.3614    5.0441    1.4889 H     155  UNL155      0.1146
    619 H           9.5287    5.4431    0.4271 H     155  UNL155      0.1146
    620 H           9.2906    3.8834    0.8267 H     155  UNL155      0.1146
    621 N           8.8031    4.7535    5.1952 N.3   156  UNL156     -0.3437
    622 H           8.3614    5.0441    6.0663 H     156  UNL156      0.1146
    623 H           9.5287    5.4431    5.0045 H     156  UNL156      0.1146
    624 H           9.2906    3.8834    5.4041 H     156  UNL156      0.1146
    625 N           8.8031    4.7535    9.7726 N.3   157  UNL157     -0.3437
    626 H           8.3614    5.0441   10.6437 H     157  UNL157      0.1146
    627 H           9.5287    5.4431    9.5819 H     157  UNL157      0.1146
    628 H           9.2906    3.8834    9.9815 H     157  UNL157      0.1146
    629 N           8.8031    4.7535   12.0613 N.3   158  UNL158     -0.3437
    630 H           8.3614    5.0441   12.9324 H     158  UNL158      0.1146
    631 H           9.5287    5.4431   11.8706 H     158  UNL158      0.1146
    632 H           9.2906    3.8834   12.2702 H     158  UNL158      0.1146
    633 N           9.0894    4.9520   14.3501 N.3   159  UNL159     -0.3437
    634 H           9.5865    5.1320   15.2212 H     159  UNL159      0.1146
    635 H           9.2076    3.9580   14.1594 H     159  UNL159      0.1146
    636 H           8.1005    5.0822   14.5590 H     159  UNL159      0.1146
    637 N           8.8031    4.7535   18.9275 N.3   160  UNL160     -0.3437
    638 H           8.3614    5.0441   19.7986 H     160  UNL160      0.1146
    639 H           9.5287    5.4431   18.7368 H     160  UNL160      0.1146
    640 H           9.2906    3.8834   19.1364 H     160  UNL160      0.1146
    641 N           8.8031    4.7535   30.3711 N.3   161  UNL161     -0.3437
    642 H           8.3614    5.0441   31.2422 H     161  UNL161      0.1146
    643 H           9.5287    5.4431   30.1804 H     161  UNL161      0.1146
    644 H           9.2906    3.8834   30.5800 H     161  UNL161      0.1146
    645 N           8.9973    0.5318   30.7044 N.3   162  UNL162     -0.3437
    646 H           8.5556   -0.3400   30.4159 H     162  UNL162      0.1146
    647 H           9.7229    0.2719   31.3710 H     162  UNL162      0.1146
    648 H           9.4848    0.8852   29.8823 H     162  UNL162      0.1146
    649 N          10.9973    4.6194    7.8613 N.3   163  UNL163     -0.3437
    650 H          10.5556    5.1434    7.1072 H     163  UNL163      0.1146
    651 H          11.7229    4.0539    7.4230 H     163  UNL163      0.1146
    652 H          11.4848    5.3075    8.4334 H     163  UNL163      0.1146
    653 N          11.4327    4.7420   26.1804 N.3   164  UNL164     -0.3437
    654 H          11.5651    4.4611   25.2098 H     164  UNL164      0.1146
    655 H          11.1277    5.7139   26.1524 H     164  UNL164      0.1146
    656 H          10.6351    4.2071   26.5213 H     164  UNL164      0.1146
    657 N          10.9973    2.7535   31.3711 N.3   165  UNL165     -0.3437
    658 H          10.5556    3.0441   32.2422 H     165  UNL165      0.1146
    659 H          11.7229    3.4431   31.1804 H     165  UNL165      0.1146
    660 H          11.4848    1.8834   31.5800 H     165  UNL165      0.1146
@<TRIPOS>BOND
     1     1     2    1
     2     1     3    1
     3     1     4    1
     4     5     6    1
     5     5     7    1
     6     5     8    1
     7     9    10    1
     8     9    11    1
     9     9    12    1
    10    13    14    1
    11    13    15    1
    12    13    16    1
    13    17    18    1
    14    17    19    1
    15    17    20    1
    16    21    22    1
    17    21    23    1
    18    21    24    1
    19    25    26    1
    20    25    27    1
    21    25    28    1
    22    29    30    1
    23    29    31    1
    24    29    32    1
    25    33    34    1
    26    33    35    1
    27    33    36    1
    28    37    38    1
    29    37    39    1
    30    37    40    1
    31    41    42    1
    32    41    43    1
    33    41    44    1
    34    45    46    1
    35    45    47    1
    36    45    48    1
    37    49    50    1
    38    49    51    1
    39    49    52    1
    40    53    54    1
    41    53    55    1
    42    53    56    1
    43    57    58    1
    44    57    59    1
    45    57    60    1
    46    61    62    1
    47    61    63    1
    48    61    64    1
    49    65    66    1
    50    65    67    1
    51    65    68    1
    52    69    70    1
    53    69    71    1
    54    69    72    1
    55    73    74    1
    56    73    75    1
    57    73    76    1
    58    77    78    1
    59    77    79    1
    60    77    80    1
    61    81    82    1
    62    81    83    1
    63    81    84    1
    64    85    86    1
    65    85    87    1
    66    85    88    1
    67    89    90    1
    68    89    91    1
    69    89    92    1
    70    93    94    1
    71    93    95    1
    72    93    96    1
    73    97    98    1
    74    97    99    1
    75    97   100    1
    76   101   102    1
    77   101   103    1
    78   101   104    1
    79   105   106    1
    80   105   107    1
    81   105   108    1
    82   109   110    1
    83   109   111    1
    84   109   112    1
    85   113   114    1
    86   113   115    1
    87   113   116    1
    88   117   118    1
    89   117   119    1
    90   117   120    1
    91   121   122    1
    92   121   123    1
    93   121   124    1
    94   125   126    1
    95   125   127    1
    96   125   128    1
    97   129   130    1
    98   129   131    1
    99   129   132    1
   100   133   134    1
   101   133   135    1
   102   133   136    1
   103   137   138    1
   104   137   139    1
   105   137   140    1
   106   141   142    1
   107   141   143    1
   108   141   144    1
   109   145   146    1
   110   145   147    1
   111   145   148    1
   112   149   150    1
   113   149   151    1
   114   149   152    1
   115   153   154    1
   116   153   155    1
   117   153   156    1
   118   157   158    1
   119   157   159    1
   120   157   160    1
   121   161   162    1
   122   161   163    1
   123   161   164    1
   124   165   166    1
   125   165   167    1
   126   165   168    1
   127   169   170    1
   128   169   171    1
   129   169   172    1
   130   173   174    1
   131   173   175    1
   132   173   176    1
   133   177   178    1
   134   177   179    1
   135   177   180    1
   136   181   182    1
   137   181   183    1
   138   181   184    1
   139   185   186    1
   140   185   187    1
   141   185   188    1
   142   189   190    1
   143   189   191    1
   144   189   192    1
   145   193   194    1
   146   193   195    1
   147   193   196    1
   148   197   198    1
   149   197   199    1
   150   197   200    1
   151   201   202    1
   152   201   203    1
   153   201   204    1
   154   205   206    1
   155   205   207    1
   156   205   208    1
   157   209   210    1
   158   209   211    1
   159   209   212    1
   160   213   214    1
   161   213   215    1
   162   213   216    1
   163   217   218    1
   164   217   219    1
   165   217   220    1
   166   221   222    1
   167   221   223    1
   168   221   224    1
   169   225   226    1
   170   225   227    1
   171   225   228    1
   172   229   230    1
   173   229   231    1
   174   229   232    1
   175   233   234    1
   176   233   235    1
   177   233   236    1
   178   237   238    1
   179   237   239    1
   180   237   240    1
   181   241   242    1
   182   241   243    1
   183   241   244    1
   184   245   246    1
   185   245   247    1
   186   245   248    1
   187   249   250    1
   188   249   251    1
   189   249   252    1
   190   253   254    1
   191   253   255    1
   192   253   256    1
   193   257   258    1
   194   257   259    1
   195   257   260    1
   196   261   262    1
   197   261   263    1
   198   261   264    1
   199   265   266    1
   200   265   267    1
   201   265   268    1
   202   269   270    1
   203   269   271    1
   204   269   272    1
   205   273   274    1
   206   273   275    1
   207   273   276    1
   208   277   278    1
   209   277   279    1
   210   277   280    1
   211   281   282    1
   212   281   283    1
   213   281   284    1
   214   285   286    1
   215   285   287    1
   216   285   288    1
   217   289   290    1
   218   289   291    1
   219   289   292    1
   220   293   294    1
   221   293   295    1
   222   293   296    1
   223   297   298    1
   224   297   299    1
   225   297   300    1
   226   301   302    1
   227   301   303    1
   228   301   304    1
   229   305   306    1
   230   305   307    1
   231   305   308    1
   232   309   310    1
   233   309   311    1
   234   309   312    1
   235   313   314    1
   236   313   315    1
   237   313   316    1
   238   317   318    1
   239   317   319    1
   240   317   320    1
   241   321   322    1
   242   321   323    1
   243   321   324    1
   244   325   326    1
   245   325   327    1
   246   325   328    1
   247   329   330    1
   248   329   331    1
   249   329   332    1
   250   333   334    1
   251   333   335    1
   252   333   336    1
   253   337   338    1
   254   337   339    1
   255   337   340    1
   256   341   342    1
   257   341   343    1
   258   341   344    1
   259   345   346    1
   260   345   347    1
   261   345   348    1
   262   349   350    1
   263   349   351    1
   264   349   352    1
   265   353   354    1
   266   353   355    1
   267   353   356    1
   268   357   358    1
   269   357   359    1
   270   357   360    1
   271   361   362    1
   272   361   363    1
   273   361   364    1
   274   365   366    1
   275   365   367    1
   276   365   368    1
   277   369   370    1
   278   369   371    1
   279   369   372    1
   280   373   374    1
   281   373   375    1
   282   373   376    1
   283   377   378    1
   284   377   379    1
   285   377   380    1
   286   381   382    1
   287   381   383    1
   288   381   384    1
   289   385   386    1
   290   385   387    1
   291   385   388    1
   292   389   390    1
   293   389   391    1
   294   389   392    1
   295   393   394    1
   296   393   395    1
   297   393   396    1
   298   397   398    1
   299   397   399    1
   300   397   400    1
   301   401   402    1
   302   401   403    1
   303   401   404    1
   304   405   406    1
   305   405   407    1
   306   405   408    1
   307   409   410    1
   308   409   411    1
   309   409   412    1
   310   413   414    1
   311   413   415    1
   312   413   416    1
   313   417   418    1
   314   417   419    1
   315   417   420    1
   316   421   422    1
   317   421   423    1
   318   421   424    1
   319   425   426    1
   320   425   427    1
   321   425   428    1
   322   429   430    1
   323   429   431    1
   324   429   432    1
   325   433   434    1
   326   433   435    1
   327   433   436    1
   328   437   438    1
   329   437   439    1
   330   437   440    1
   331   441   442    1
   332   441   443    1
   333   441   444    1
   334   445   446    1
   335   445   447    1
   336   445   448    1
   337   449   450    1
   338   449   451    1
   339   449   452    1
   340   453   454    1
   341   453   455    1
   342   453   456    1
   343   457   458    1
   344   457   459    1
   345   457   460    1
   346   461   462    1
   347   461   463    1
   348   461   464    1
   349   465   466    1
   350   465   467    1
   351   465   468    1
   352   469   470    1
   353   469   471    1
   354   469   472    1
   355   473   474    1
   356   473   475    1
   357   473   476    1
   358   477   478    1
   359   477   479    1
   360   477   480    1
   361   481   482    1
   362   481   483    1
   363   481   484    1
   364   485   486    1
   365   485   487    1
   366   485   488    1
   367   489   490    1
   368   489   491    1
   369   489   492    1
   370   493   494    1
   371   493   495    1
   372   493   496    1
   373   497   498    1
   374   497   499    1
   375   497   500    1
   376   501   502    1
   377   501   503    1
   378   501   504    1
   379   505   506    1
   380   505   507    1
   381   505   508    1
   382   509   510    1
   383   509   511    1
   384   509   512    1
   385   513   514    1
   386   513   515    1
   387   513   516    1
   388   517   518    1
   389   517   519    1
   390   517   520    1
   391   521   522    1
   392   521   523    1
   393   521   524    1
   394   525   526    1
   395   525   527    1
   396   525   528    1
   397   529   530    1
   398   529   531    1
   399   529   532    1
   400   533   534    1
   401   533   535    1
   402   533   536    1
   403   537   538    1
   404   537   539    1
   405   537   540    1
   406   541   542    1
   407   541   543    1
   408   541   544    1
   409   545   546    1
   410   545   547    1
   411   545   548    1
   412   549   550    1
   413   549   551    1
   414   549   552    1
   415   553   554    1
   416   553   555    1
   417   553   556    1
   418   557   558    1
   419   557   559    1
   420   557   560    1
   421   561   562    1
   422   561   563    1
   423   561   564    1
   424   565   566    1
   425   565   567    1
   426   565   568    1
   427   569   570    1
   428   569   571    1
   429   569   572    1
   430   573   574    1
   431   573   575    1
   432   573   576    1
   433   577   578    1
   434   577   579    1
   435   577   580    1
   436   581   582    1
   437   581   583    1
   438   581   584    1
   439   585   586    1
   440   585   587    1
   441   585   588    1
   442   589   590    1
   443   589   591    1
   444   589   592    1
   445   593   594    1
   446   593   595    1
   447   593   596    1
   448   597   598    1
   449   597   599    1
   450   597   600    1
   451   601   602    1
   452   601   603    1
   453   601   604    1
   454   605   606    1
   455   605   607    1
   456   605   608    1
   457   609   610    1
   458   609   611    1
   459   609   612    1
   460   613   614    1
   461   613   615    1
   462   613   616    1
   463   617   618    1
   464   617   619    1
   465   617   620    1
   466   621   622    1
   467   621   623    1
   468   621   624    1
   469   625   626    1
   470   625   627    1
   471   625   628    1
   472   629   630    1
   473   629   631    1
   474   629   632    1
   475   633   634    1
   476   633   635    1
   477   633   636    1
   478   637   638    1
   479   637   639    1
   480   637   640    1
   481   641   642    1
   482   641   643    1
   483   641   644    1
   484   645   646    1
   485   645   647    1
   486   645   648    1
   487   649   650    1
   488   649   651    1
   489   649   652    1
   490   653   654    1
   491   653   655    1
   492   653   656    1
   493   657   658    1
   494   657   659    1
   495   657   660    1
