@<TRIPOS>MOLECULE
*****
 4208 3156 0 0 0
SMALL
GASTEIGER

@<TRIPOS>ATOM
      1 N          -0.9461    8.6139   24.1490 N.3     1  UNL1       -0.3437
      2 H          -0.0658    8.8537   23.6951 H       1  UNL1        0.1146
      3 H          -1.2921    7.7837   23.6700 H       1  UNL1        0.1146
      4 H          -0.7031    8.3132   25.0919 H       1  UNL1        0.1146
      5 N          -1.2863   16.1957   20.9613 N.3     2  UNL2       -0.3437
      6 H          -1.5356   16.7882   21.7520 H       2  UNL2        0.1146
      7 H          -1.0467   16.8293   20.2000 H       2  UNL2        0.1146
      8 H          -0.4186   15.7295   21.2223 H       2  UNL2        0.1146
      9 N           0.9355   -1.0318   -1.0587 N.3     3  UNL3       -0.3437
     10 H           0.8275   -0.0578   -1.3381 H       3  UNL3        0.1146
     11 H           1.8768   -1.3020   -1.3403 H       3  UNL3        0.1146
     12 H           0.9359   -1.0333   -0.0397 H       3  UNL3        0.1146
     13 N           0.6123    0.7376    1.1573 N.3     4  UNL4       -0.3437
     14 H           0.1238   -0.1080    1.4481 H       4  UNL4        0.1146
     15 H           1.2339    0.9818    1.9270 H       4  UNL4        0.1146
     16 H           1.2169    0.4612    0.3850 H       4  UNL4        0.1146
     17 N           1.2505    0.4794    3.6575 N.3     5  UNL5       -0.3437
     18 H           1.9376    1.0193    4.1815 H       5  UNL5        0.1146
     19 H           0.7397   -0.0700    4.3472 H       5  UNL5        0.1146
     20 H           0.5840    1.1559    3.2880 H       5  UNL5        0.1146
     21 N           0.7346    0.5634    6.3531 N.3     6  UNL6       -0.3437
     22 H           0.1724   -0.1863    5.9529 H       6  UNL6        0.1146
     23 H           1.4154    0.1101    6.9610 H       6  UNL6        0.1146
     24 H           1.2678    0.9582    5.5797 H       6  UNL6        0.1146
     25 N           1.1810    0.6181    8.9063 N.3     7  UNL7       -0.3437
     26 H           0.5073    0.2748    9.5894 H       7  UNL7        0.1146
     27 H           1.4968   -0.2001    8.3876 H       7  UNL7        0.1146
     28 H           0.6483    1.1814    8.2450 H       7  UNL7        0.1146
     29 N           0.8327    0.4300   11.4421 N.3     8  UNL8       -0.3437
     30 H           0.3910   -0.3239   10.9179 H       8  UNL8        0.1146
     31 H           1.5583   -0.0085   12.0075 H       8  UNL8        0.1146
     32 H           1.3202    1.0023   10.7543 H       8  UNL8        0.1146
     33 N           0.4860    0.7082   13.7707 N.3     9  UNL9       -0.3437
     34 H           0.0340    0.2072   13.0071 H       9  UNL9        0.1146
     35 H           1.0230    0.0113   14.2849 H       9  UNL9        0.1146
     36 H           1.1703    1.3252   13.3357 H       9  UNL9        0.1146
     37 N           0.7431    0.8359   16.2570 N.3    10  UNL10      -0.3437
     38 H           0.3014   -0.0359   15.9685 H      10  UNL10       0.1146
     39 H           1.4687    0.5760   16.9236 H      10  UNL10       0.1146
     40 H           1.2306    1.1893   15.4349 H      10  UNL10       0.1146
     41 N           0.7534    0.6715   18.7873 N.3    11  UNL11      -0.3437
     42 H           0.2639    0.3616   17.9490 H      11  UNL11       0.1146
     43 H           1.3765   -0.0918   19.0471 H      11  UNL11       0.1146
     44 H           1.3563    1.4385   18.4931 H      11  UNL11       0.1146
     45 N           0.9890    3.3713   -0.1465 N.3    12  UNL12      -0.3437
     46 H           0.5056    2.6914   -0.7317 H      12  UNL12       0.1146
     47 H           1.5594    2.8293    0.5011 H      12  UNL12       0.1146
     48 H           1.6433    3.8550   -0.7599 H      12  UNL12       0.1146
     49 N           0.7911    3.1874    2.4341 N.3    13  UNL13      -0.3437
     50 H           0.3494    3.1804    1.5158 H      13  UNL13       0.1146
     51 H           1.5167    2.4726    2.4022 H      13  UNL13       0.1146
     52 H           1.2786    4.0794    2.5045 H      13  UNL13       0.1146
     53 N           0.7884    3.0972    4.4881 N.3    14  UNL14      -0.3437
     54 H           0.2263    3.6416    5.1408 H      14  UNL14       0.1146
     55 H           1.5676    3.6969    4.2204 H      14  UNL14       0.1146
     56 H           1.1934    2.3369    5.0325 H      14  UNL14       0.1146
     57 N           0.7146    3.1569    6.9584 N.3    15  UNL15      -0.3437
     58 H           0.6643    3.8590    7.6952 H      15  UNL15       0.1146
     59 H           1.3207    3.5481    6.2386 H      15  UNL15       0.1146
     60 H           1.2233    2.3686    7.3559 H      15  UNL15       0.1146
     61 N           1.0476    3.0509    9.3130 N.3    16  UNL16      -0.3437
     62 H           1.5122    2.4864   10.0229 H      16  UNL16       0.1146
     63 H           0.0568    3.0419    9.5510 H      16  UNL16       0.1146
     64 H           1.3639    4.0078    9.4637 H      16  UNL16       0.1146
     65 N           0.8167    3.0778   11.5871 N.3    17  UNL17      -0.3437
     66 H           0.2452    3.6219   12.2319 H      17  UNL17       0.1146
     67 H           1.4782    3.7345   11.1754 H      17  UNL17       0.1146
     68 H           1.3700    2.4473   12.1657 H      17  UNL17       0.1146
     69 N           0.7661    3.0663   14.2096 N.3    18  UNL18      -0.3437
     70 H           0.3350    3.6278   14.9425 H      18  UNL18       0.1146
     71 H           1.2544    3.7233   13.6028 H      18  UNL18       0.1146
     72 H           1.4906    2.5152   14.6675 H      18  UNL18       0.1146
     73 N           0.7271    3.1696   17.1598 N.3    19  UNL19      -0.3437
     74 H           0.6046    3.7548   17.9850 H      19  UNL19       0.1146
     75 H           1.1142    3.7775   16.4394 H      19  UNL19       0.1146
     76 H           1.4642    2.5059   17.3931 H      19  UNL19       0.1146
     77 N           0.8548    2.9253   20.8104 N.3    20  UNL20      -0.3437
     78 H           0.6712    3.4577   21.6596 H      20  UNL20       0.1146
     79 H           1.4431    3.5196   20.2280 H      20  UNL20       0.1146
     80 H           1.4402    2.1403   21.0921 H      20  UNL20       0.1146
     81 N           0.6859    1.3236   23.5065 N.3    21  UNL21      -0.3437
     82 H           1.0051    0.4351   23.1232 H      21  UNL21       0.1146
     83 H           1.2277    1.4738   24.3564 H      21  UNL21       0.1146
     84 H           0.9915    2.0393   22.8486 H      21  UNL21       0.1146
     85 N           0.7411    5.9087    1.3493 N.3    22  UNL22      -0.3437
     86 H           0.3280    5.0447    1.0011 H      22  UNL22       0.1146
     87 H           1.3569    5.6371    2.1145 H      22  UNL22       0.1146
     88 H           1.3498    6.2485    0.6061 H      22  UNL22       0.1146
     89 N           0.3758    5.9134    3.8476 N.3    23  UNL23      -0.3437
     90 H           0.1999    5.0736    3.2979 H      23  UNL23       0.1146
     91 H           1.1453    5.6827    4.4745 H      23  UNL23       0.1146
     92 H           0.7428    6.6045    3.1949 H      23  UNL23       0.1146
     93 N          -0.3650    6.0282    6.4249 N.3    24  UNL24      -0.3437
     94 H           0.3150    6.1611    5.6778 H      24  UNL24       0.1146
     95 H          -1.2817    6.0784    5.9826 H      24  UNL24       0.1146
     96 H          -0.2557    5.0640    6.7359 H      24  UNL24       0.1146
     97 N           0.5371    5.7785    8.4398 N.3    25  UNL25      -0.3437
     98 H           0.8835    6.0977    9.3434 H      25  UNL25       0.1146
     99 H          -0.1103    5.0174    8.6400 H      25  UNL25       0.1146
    100 H          -0.0306    6.5405    8.0715 H      25  UNL25       0.1146
    101 N           0.7750    5.6549   11.3764 N.3    26  UNL26      -0.3437
    102 H           0.5539    5.1309   10.5309 H      26  UNL26       0.1146
    103 H           1.3261    5.0270   11.9599 H      26  UNL26       0.1146
    104 H           1.4088    6.3989   11.0881 H      26  UNL26       0.1146
    105 N           0.4631    5.7976   13.7613 N.3    27  UNL27      -0.3437
    106 H           0.0214    5.0436   13.2371 H      27  UNL27       0.1146
    107 H           1.1887    5.3590   14.3266 H      27  UNL27       0.1146
    108 H           0.9506    6.3699   13.0734 H      27  UNL27       0.1146
    109 N           0.6066    6.1429   16.1264 N.3    28  UNL28      -0.3437
    110 H           0.2313    5.3169   15.6625 H      28  UNL28       0.1146
    111 H           1.2598    5.7982   16.8286 H      28  UNL28       0.1146
    112 H           1.1725    6.6241   15.4288 H      28  UNL28       0.1146
    113 N           0.6540    5.6315   18.7010 N.3    29  UNL29      -0.3437
    114 H           1.3220    6.3046   18.3281 H      29  UNL29       0.1146
    115 H           0.0659    6.1504   19.3515 H      29  UNL29       0.1146
    116 H           0.0506    5.3733   17.9215 H      29  UNL29       0.1146
    117 N           1.1235    5.4124   21.0642 N.3    30  UNL30      -0.3437
    118 H           0.7790    5.9909   21.8290 H      30  UNL30       0.1146
    119 H           0.2968    5.0365   20.6019 H      30  UNL30       0.1146
    120 H           1.5509    6.0536   20.3974 H      30  UNL30       0.1146
    121 N           1.2306    3.9139   24.5178 N.3    31  UNL31      -0.3437
    122 H           1.4019    3.0855   25.0859 H      31  UNL31       0.1146
    123 H           0.5361    3.6401   23.8241 H      31  UNL31       0.1146
    124 H           0.7670    4.5835   25.1302 H      31  UNL31       0.1146
    125 N           0.8311    8.4072    1.2032 N.3    32  UNL32      -0.3437
    126 H           0.3894    8.9332    1.9559 H      32  UNL32       0.1146
    127 H           1.5567    9.0142    0.8245 H      32  UNL32       0.1146
    128 H           1.3186    7.6323    1.6506 H      32  UNL32       0.1146
    129 N           0.8350    8.5696    3.6410 N.3    33  UNL33      -0.3437
    130 H           0.3391    9.0436    4.3945 H      33  UNL33       0.1146
    131 H           1.4575    9.2657    3.2329 H      33  UNL33       0.1146
    132 H           1.4385    7.8824    4.0905 H      33  UNL33       0.1146
    133 N           0.7912    8.0700    6.0198 N.3    34  UNL34      -0.3437
    134 H           0.3100    8.6335    6.7193 H      34  UNL34       0.1146
    135 H           1.4061    8.7096    5.5184 H      34  UNL34       0.1146
    136 H           1.4028    7.4410    6.5381 H      34  UNL34       0.1146
    137 N           0.7632    8.2080    8.5099 N.3    35  UNL35      -0.3437
    138 H           0.2668    8.8647    9.1105 H      35  UNL35       0.1146
    139 H           1.3873    8.7708    7.9336 H      35  UNL35       0.1146
    140 H           1.3649    7.6634    9.1262 H      35  UNL35       0.1146
    141 N           0.8987    8.4416   10.9277 N.3    36  UNL36      -0.3437
    142 H           0.2470    8.9302   11.5400 H      36  UNL36       0.1146
    143 H           1.4820    9.1628   10.5056 H      36  UNL36       0.1146
    144 H           1.5127    7.9068   11.5404 H      36  UNL36       0.1146
    145 N           0.8016    8.3280   13.4763 N.3    37  UNL37      -0.3437
    146 H           0.3052    8.9847   14.0769 H      37  UNL37       0.1146
    147 H           1.4257    8.8908   12.9000 H      37  UNL37       0.1146
    148 H           1.4033    7.7834   14.0925 H      37  UNL37       0.1146
    149 N           0.7441    8.6561   16.1063 N.3    38  UNL38      -0.3437
    150 H           0.2868    8.0619   15.4163 H      38  UNL38       0.1146
    151 H           1.3105    8.0341   16.6814 H      38  UNL38       0.1146
    152 H           1.4023    9.2348   15.5863 H      38  UNL38       0.1146
    153 N           0.1958    8.3192   18.7899 N.3    39  UNL39      -0.3437
    154 H           0.0383    8.3821   17.7852 H      39  UNL39       0.1146
    155 H           1.0052    7.7119   18.9099 H      39  UNL39       0.1146
    156 H           0.4948    9.2473   19.0860 H      39  UNL39       0.1146
    157 N           0.9319    8.2120   20.7486 N.3    40  UNL40      -0.3437
    158 H           0.4902    8.7380   21.5012 H      40  UNL40       0.1146
    159 H           1.6575    8.8190   20.3698 H      40  UNL40       0.1146
    160 H           1.4194    7.4371   21.1960 H      40  UNL40       0.1146
    161 N           0.9564    6.5984   23.9429 N.3    41  UNL41      -0.3437
    162 H           1.0273    7.4436   24.5077 H      41  UNL41       0.1146
    163 H           0.0727    6.6696   23.4405 H      41  UNL41       0.1146
    164 H           1.6874    6.6705   23.2366 H      41  UNL41       0.1146
    165 N           0.9115   11.1723    1.6883 N.3    42  UNL42      -0.3437
    166 H           1.5918   11.0501    2.4369 H      42  UNL42       0.1146
    167 H           1.3796   11.7239    0.9706 H      42  UNL42       0.1146
    168 H           0.7696   10.2478    1.2839 H      42  UNL42       0.1146
    169 N           0.7510   11.1643    4.4372 N.3    43  UNL43      -0.3437
    170 H           1.4068   10.5732    4.9460 H      43  UNL43       0.1146
    171 H           1.2935   11.9566    4.0960 H      43  UNL43       0.1146
    172 H           0.4780   10.6343    3.6108 H      43  UNL43       0.1146
    173 N           0.7844   11.1718    6.9508 N.3    44  UNL44      -0.3437
    174 H           1.5784   11.0495    7.5777 H      44  UNL44       0.1146
    175 H           1.1280   11.7251    6.1670 H      44  UNL44       0.1146
    176 H           0.5794   10.2477    6.5736 H      44  UNL44       0.1146
    177 N           0.7798   10.9371    9.5017 N.3    45  UNL45      -0.3437
    178 H           1.5743   11.3624    9.9774 H      45  UNL45       0.1146
    179 H           0.3922   11.6619    8.8994 H      45  UNL45       0.1146
    180 H           1.1703   10.2326    8.8777 H      45  UNL45       0.1146
    181 N           0.7175   11.0541   12.1178 N.3    46  UNL46      -0.3437
    182 H           1.1380   10.6007   12.9277 H      46  UNL46       0.1146
    183 H           1.1279   11.9858   12.0729 H      46  UNL46       0.1146
    184 H           1.0676   10.5534   11.3023 H      46  UNL46       0.1146
    185 N           0.6383   10.9262   14.9032 N.3    47  UNL47      -0.3437
    186 H           0.9030   11.0321   15.8815 H      47  UNL47       0.1146
    187 H           0.5737   11.8705   14.5258 H      47  UNL47       0.1146
    188 H           1.4369   10.4933   14.4414 H      47  UNL47       0.1146
    189 N           0.7840   10.9717   18.3033 N.3    48  UNL48      -0.3437
    190 H           0.5385   11.4707   17.4494 H      48  UNL48       0.1146
    191 H           1.4709   10.2700   18.0310 H      48  UNL48       0.1146
    192 H           1.2831   11.6417   18.8866 H      48  UNL48       0.1146
    193 N           0.5936   11.1248   20.7485 N.3    49  UNL49      -0.3437
    194 H          -0.0037   11.3662   21.5379 H      49  UNL49       0.1146
    195 H           1.2347   11.9082   20.6315 H      49  UNL49       0.1146
    196 H           1.1639   10.3390   21.0578 H      49  UNL49       0.1146
    197 N           0.7309   10.8865   23.4370 N.3    50  UNL50      -0.3437
    198 H           0.5055   11.8336   23.1360 H      50  UNL50       0.1146
    199 H           1.6336   10.6662   23.0187 H      50  UNL50       0.1146
    200 H           0.8929   10.9421   24.4415 H      50  UNL50       0.1146
    201 N           0.8503   13.5411    1.4285 N.3    51  UNL51      -0.3437
    202 H           0.4086   12.9568    0.7201 H      51  UNL51       0.1146
    203 H           1.5759   12.9661    1.8543 H      51  UNL51       0.1146
    204 H           1.3378   14.2780    0.9208 H      51  UNL51       0.1146
    205 N           0.8779   13.9328    3.7362 N.3    52  UNL52      -0.3437
    206 H           0.3900   13.1198    3.3629 H      52  UNL52       0.1146
    207 H           1.4635   13.5852    4.4943 H      52  UNL52       0.1146
    208 H           1.5179   14.2370    3.0039 H      52  UNL52       0.1146
    209 N           0.9207   14.6204    6.0280 N.3    53  UNL53      -0.3437
    210 H           1.5393   14.7114    6.8326 H      53  UNL53       0.1146
    211 H           0.6797   13.6320    5.9695 H      53  UNL53       0.1146
    212 H           0.0601   15.1048    6.2792 H      53  UNL53       0.1146
    213 N           0.7479   13.5180    8.6259 N.3    54  UNL54      -0.3437
    214 H           0.3062   13.0535    7.8337 H      54  UNL54       0.1146
    215 H           1.4735   12.8827    8.9551 H      54  UNL54       0.1146
    216 H           1.2354   14.3261    8.2415 H      54  UNL54       0.1146
    217 N           1.0561   14.1279   10.8332 N.3    55  UNL55      -0.3437
    218 H           0.9510   14.2639   11.8376 H      55  UNL55       0.1146
    219 H           1.1817   13.1258   10.6970 H      55  UNL55       0.1146
    220 H           0.1517   14.3558   10.4227 H      55  UNL55       0.1146
    221 N           0.7383   13.8268   13.8594 N.3    56  UNL56      -0.3437
    222 H           0.2966   13.3623   13.0673 H      56  UNL56       0.1146
    223 H           1.4639   13.1916   14.1886 H      56  UNL56       0.1146
    224 H           1.2258   14.6349   13.4751 H      56  UNL56       0.1146
    225 N           0.8175   14.2277   15.9563 N.3    57  UNL57      -0.3437
    226 H           1.0237   14.3586   16.9456 H      57  UNL57       0.1146
    227 H           1.4909   14.8014   15.4507 H      57  UNL57       0.1146
    228 H           1.0580   13.2603   15.7449 H      57  UNL57       0.1146
    229 N           0.8848   13.6766   19.1108 N.3    58  UNL58      -0.3437
    230 H           1.1173   14.5123   18.5762 H      58  UNL58       0.1146
    231 H           0.0196   13.8908   19.6047 H      58  UNL58       0.1146
    232 H           0.6469   12.9615   18.4249 H      58  UNL58       0.1146
    233 N           0.7479   13.8770   21.7267 N.3    59  UNL59      -0.3437
    234 H           0.3062   13.2309   21.0741 H      59  UNL59       0.1146
    235 H           1.4735   13.3430   22.2028 H      59  UNL59       0.1146
    236 H           1.2354   14.5648   21.1543 H      59  UNL59       0.1146
    237 N           0.6887   13.5878   24.3485 N.3    60  UNL60      -0.3437
    238 H           1.3358   12.8188   24.5171 H      60  UNL60       0.1146
    239 H           0.6825   14.1422   25.2034 H      60  UNL60       0.1146
    240 H           1.1264   14.1724   23.6378 H      60  UNL60       0.1146
    241 N           1.2080   16.3508    1.1082 N.3    61  UNL61      -0.3437
    242 H           1.5000   15.9918    2.0161 H      61  UNL61       0.1146
    243 H           0.5345   15.6786    0.7437 H      61  UNL61       0.1146
    244 H           0.6805   17.2015    1.2990 H      61  UNL61       0.1146
    245 N           0.9007   16.1772    3.8785 N.3    62  UNL62      -0.3437
    246 H           0.4805   16.4298    2.9852 H      62  UNL62       0.1146
    247 H           1.6947   15.5784    3.6561 H      62  UNL62       0.1146
    248 H           1.2950   17.0374    4.2566 H      62  UNL62       0.1146
    249 N           0.8642   16.8808    6.2849 N.3    63  UNL63      -0.3437
    250 H           0.1615   17.1174    5.5859 H      63  UNL63       0.1146
    251 H           1.5586   16.3112    5.8034 H      63  UNL63       0.1146
    252 H           1.3322   17.7549    6.5198 H      63  UNL63       0.1146
    253 N           1.2100   16.3073    8.3792 N.3    64  UNL64      -0.3437
    254 H           1.5443   15.8394    9.2205 H      64  UNL64       0.1146
    255 H           0.3480   15.8313    8.1168 H      64  UNL64       0.1146
    256 H           0.9359   17.2448    8.6694 H      64  UNL64       0.1146
    257 N           0.9159   16.6255   10.9324 N.3    65  UNL65      -0.3437
    258 H           1.7640   16.1740   11.2717 H      65  UNL65       0.1146
    259 H           0.3352   15.8808   10.5495 H      65  UNL65       0.1146
    260 H           0.4279   16.9648   11.7601 H      65  UNL65       0.1146
    261 N           1.1642   16.8135   13.7805 N.3    66  UNL66      -0.3437
    262 H           1.5703   17.3245   12.9980 H      66  UNL66       0.1146
    263 H           0.7107   17.5124   14.3672 H      66  UNL66       0.1146
    264 H           0.4138   16.2474   13.3871 H      66  UNL66       0.1146
    265 N          -1.2160   16.3671   16.9037 N.3    67  UNL67      -0.3437
    266 H          -0.8547   17.0804   17.5354 H      67  UNL67       0.1146
    267 H          -0.8796   16.6180   15.9751 H      67  UNL67       0.1146
    268 H          -0.7363   15.5030   17.1520 H      67  UNL67       0.1146
    269 N           1.2767   16.8280   16.3373 N.3    68  UNL68      -0.3437
    270 H           0.8229   17.7388   16.2846 H      68  UNL68       0.1146
    271 H           0.8645   16.3548   17.1401 H      68  UNL68       0.1146
    272 H           0.9652   16.3111   15.5162 H      68  UNL68       0.1146
    273 N           0.8511   16.4941   19.5225 N.3    69  UNL69      -0.3437
    274 H           0.1800   16.0554   18.8936 H      69  UNL69       0.1146
    275 H           1.4730   15.7491   19.8336 H      69  UNL69       0.1146
    276 H           1.4189   17.1098   18.9422 H      69  UNL69       0.1146
    277 N           0.6874   16.3034   24.4535 N.3    70  UNL70      -0.3437
    278 H           1.1344   15.7790   25.2041 H      70  UNL70       0.1146
    279 H           0.9272   17.2810   24.6124 H      70  UNL70       0.1146
    280 H           1.1676   16.0322   23.5967 H      70  UNL70       0.1146
    281 N           1.0220   20.4022   -1.4182 N.3    71  UNL71      -0.3437
    282 H           0.1803   20.7414   -0.9546 H      71  UNL71       0.1146
    283 H           1.7907   20.5878   -0.7755 H      71  UNL71       0.1146
    284 H           0.9300   19.3882   -1.4606 H      71  UNL71       0.1146
    285 N           0.8986   20.6972    1.0910 N.3    72  UNL72      -0.3437
    286 H           0.1901   20.6473    1.8217 H      72  UNL72       0.1146
    287 H           1.7957   20.7420    1.5722 H      72  UNL72       0.1146
    288 H           0.8784   19.7947    0.6181 H      72  UNL72       0.1146
    289 N           0.7979   19.9152    3.5145 N.3    73  UNL73      -0.3437
    290 H           0.2853   20.2621    4.3239 H      73  UNL73       0.1146
    291 H           1.4289   20.6663    3.2386 H      73  UNL73       0.1146
    292 H           1.3916   19.1623    3.8595 H      73  UNL73       0.1146
    293 N           0.7912   19.8500    6.0198 N.3    74  UNL74      -0.3437
    294 H           0.3100   20.4134    6.7193 H      74  UNL74       0.1146
    295 H           1.4061   20.4896    5.5184 H      74  UNL74       0.1146
    296 H           1.4028   19.2209    6.5381 H      74  UNL74       0.1146
    297 N           0.7464   20.2140    8.4968 N.3    75  UNL75      -0.3437
    298 H           0.5780   20.4677    9.4693 H      75  UNL75       0.1146
    299 H           1.5686   20.7418    8.2072 H      75  UNL75       0.1146
    300 H           1.0301   19.2354    8.5069 H      75  UNL75       0.1146
    301 N           0.8519   19.0082   11.3921 N.3    76  UNL76      -0.3437
    302 H           0.2084   18.5639   10.7388 H      76  UNL76       0.1146
    303 H           1.6470   18.3765   11.4767 H      76  UNL76       0.1146
    304 H           1.2029   19.8397   10.9190 H      76  UNL76       0.1146
    305 N           1.1802   20.2780   13.5875 N.3    77  UNL77      -0.3437
    306 H           1.2601   20.5679   12.6139 H      77  UNL77       0.1146
    307 H           0.3486   20.7412   13.9512 H      77  UNL77       0.1146
    308 H           0.9612   19.2830   13.5673 H      77  UNL77       0.1146
    309 N           0.7995   20.0382   15.8530 N.3    78  UNL78      -0.3437
    310 H           0.2869   20.4977   16.6043 H      78  UNL78       0.1146
    311 H           1.4305   20.7419   15.4722 H      78  UNL78       0.1146
    312 H           1.3932   19.3425   16.3025 H      78  UNL78       0.1146
    313 N           0.7952   19.6254   18.3400 N.3    79  UNL79      -0.3437
    314 H           0.2988   20.1892   19.0287 H      79  UNL79       0.1146
    315 H           1.4193   20.2652   17.8505 H      79  UNL79       0.1146
    316 H           1.3969   18.9980   18.8717 H      79  UNL79       0.1146
    317 N           0.7315   20.1303   20.8417 N.3    80  UNL80      -0.3437
    318 H           0.5654   20.5632   21.7491 H      80  UNL80       0.1146
    319 H           1.3848   20.7417   20.3541 H      80  UNL80       0.1146
    320 H           1.2412   19.2684   21.0308 H      80  UNL80       0.1146
    321 N           1.1550   19.1860   23.2504 N.3    81  UNL81      -0.3437
    322 H           1.9908   18.6127   23.1451 H      81  UNL81       0.1146
    323 H           0.3680   18.5386   23.2469 H      81  UNL81       0.1146
    324 H           1.1964   19.5726   24.1923 H      81  UNL81       0.1146
    325 N           3.1369    0.7225    1.3260 N.3    82  UNL82      -0.3437
    326 H           2.7411   -0.1903    1.1058 H      82  UNL82       0.1146
    327 H           3.7593    0.5749    2.1192 H      82  UNL82       0.1146
    328 H           3.7373    0.9655    0.5393 H      82  UNL82       0.1146
    329 N           3.3432   -0.5553    3.7203 N.3    83  UNL83      -0.3437
    330 H           2.5477   -0.8872    4.2638 H      83  UNL83       0.1146
    331 H           4.1448   -1.1010    4.0335 H      83  UNL83       0.1146
    332 H           3.1661   -0.8430    2.7589 H      83  UNL83       0.1146
    333 N           3.2883    0.7857    5.8698 N.3    84  UNL84      -0.3437
    334 H           2.6614    0.0593    5.5268 H      84  UNL84       0.1146
    335 H           3.7816    0.3793    6.6635 H      84  UNL84       0.1146
    336 H           3.9889    0.9188    5.1420 H      84  UNL84       0.1146
    337 N           3.5444    0.4813    8.6657 N.3    85  UNL85      -0.3437
    338 H           2.9709   -0.0350    8.0002 H      85  UNL85       0.1146
    339 H           4.1329   -0.2116    9.1261 H      85  UNL85       0.1146
    340 H           4.1729    1.0571    8.1074 H      85  UNL85       0.1146
    341 N           3.1739    0.7123   11.0799 N.3    86  UNL86      -0.3437
    342 H           3.7839    1.3936   10.6304 H      86  UNL86       0.1146
    343 H           3.1211   -0.0811   10.4426 H      86  UNL86       0.1146
    344 H           3.6797    0.3805   11.9000 H      86  UNL86       0.1146
    345 N           2.9700    0.4788   13.7992 N.3    87  UNL87      -0.3437
    346 H           2.6587   -0.1370   13.0495 H      87  UNL87       0.1146
    347 H           3.6524   -0.0548   14.3360 H      87  UNL87       0.1146
    348 H           3.4920    1.2288   13.3482 H      87  UNL87       0.1146
    349 N           3.1628    0.6892   16.1306 N.3    88  UNL88      -0.3437
    350 H           2.4917    0.0900   15.6521 H      88  UNL88       0.1146
    351 H           3.7847    0.0633   16.6404 H      88  UNL88       0.1146
    352 H           3.7306    1.1148   15.3992 H      88  UNL88       0.1146
    353 N           3.1287    0.5169   18.7099 N.3    89  UNL89      -0.3437
    354 H           2.6502   -0.2559   18.2493 H      89  UNL89       0.1146
    355 H           3.9425    0.1099   19.1687 H      89  UNL89       0.1146
    356 H           3.4932    1.1066   17.9631 H      89  UNL89       0.1146
    357 N           1.1265   -0.0360   20.7971 N.3    90  UNL90      -0.3437
    358 H           0.5992    0.5228   21.4665 H      90  UNL90       0.1146
    359 H           1.7662    0.6089   20.3352 H      90  UNL90       0.1146
    360 H           1.7098   -0.6614   21.3511 H      90  UNL90       0.1146
    361 N           3.5468   -0.5430   24.6031 N.3    91  UNL91      -0.3437
    362 H           3.7327   -0.8987   23.6665 H      91  UNL91       0.1146
    363 H           2.6168   -0.1282   24.5665 H      91  UNL91       0.1146
    364 H           3.4654   -1.3622   25.2036 H      91  UNL91       0.1146
    365 N           3.6281    3.3492   -0.5132 N.3    92  UNL92      -0.3437
    366 H           4.2595    2.7211   -0.0180 H      92  UNL92       0.1146
    367 H           2.8023    2.7966   -0.7392 H      92  UNL92       0.1146
    368 H           3.3248    4.0400    0.1718 H      92  UNL92       0.1146
    369 N           3.1838    3.1985    2.1017 N.3    93  UNL93      -0.3437
    370 H           2.4866    3.7486    1.6021 H      93  UNL93       0.1146
    371 H           3.6237    2.6011    1.4031 H      93  UNL93       0.1146
    372 H           3.9014    3.8580    2.3992 H      93  UNL93       0.1146
    373 N           2.9772    2.9542    4.4972 N.3    94  UNL94      -0.3437
    374 H           2.9349    2.4211    3.6298 H      94  UNL94       0.1146
    375 H           3.6270    2.4546    5.1026 H      94  UNL94       0.1146
    376 H           3.4323    3.8355    4.2635 H      94  UNL94       0.1146
    377 N           3.0852    3.2164    7.1506 N.3    95  UNL95      -0.3437
    378 H           2.7642    2.7823    6.2864 H      95  UNL95       0.1146
    379 H           3.7596    2.5691    7.5564 H      95  UNL95       0.1146
    380 H           3.6184    4.0384    6.8708 H      95  UNL95       0.1146
    381 N           3.2660    3.3754    9.3920 N.3    96  UNL96      -0.3437
    382 H           2.8243    2.6424    8.8389 H      96  UNL96       0.1146
    383 H           3.9916    2.9152    9.9399 H      96  UNL96       0.1146
    384 H           3.7535    3.9740    8.7269 H      96  UNL96       0.1146
    385 N           3.1066    3.3566   11.8412 N.3    97  UNL97      -0.3437
    386 H           2.6861    2.8833   11.0428 H      97  UNL97       0.1146
    387 H           3.6554    2.6503   12.3294 H      97  UNL97       0.1146
    388 H           3.7794    4.0167   11.4539 H      97  UNL97       0.1146
    389 N           3.1660    3.3325   14.1968 N.3    98  UNL98      -0.3437
    390 H           2.5459    2.8557   13.5438 H      98  UNL98       0.1146
    391 H           3.8890    2.6573   14.4415 H      98  UNL98       0.1146
    392 H           3.6330    4.0615   13.6593 H      98  UNL98       0.1146
    393 N           3.1197    3.1168   16.1869 N.3    99  UNL99      -0.3437
    394 H           2.6234    3.5759   16.9492 H      99  UNL99       0.1146
    395 H           3.7438    3.8202   15.7942 H      99  UNL99       0.1146
    396 H           3.7214    2.4196   16.6230 H      99  UNL99       0.1146
    397 N           3.1476    3.0652   21.0190 N.3   100  UNL100     -0.3437
    398 H           2.7059    3.5913   21.7716 H     100  UNL100      0.1146
    399 H           3.8732    3.6722   20.6402 H     100  UNL100      0.1146
    400 H           3.6351    2.2903   21.4664 H     100  UNL100      0.1146
    401 N           3.2391    2.1789   23.5771 N.3   101  UNL101     -0.3437
    402 H           3.5073    2.0217   24.5475 H     101  UNL101      0.1146
    403 H           4.1063    2.3515   23.0705 H     101  UNL101      0.1146
    404 H           2.8868    1.2861   23.2348 H     101  UNL101      0.1146
    405 N           3.2384    5.8524    1.3157 N.3   102  UNL102     -0.3437
    406 H           2.5625    5.2448    0.8548 H     102  UNL102      0.1146
    407 H           3.8745    5.2348    1.8180 H     102  UNL102      0.1146
    408 H           3.7888    6.2765    0.5704 H     102  UNL102      0.1146
    409 N           3.0190    5.9418    3.8105 N.3   103  UNL103     -0.3437
    410 H           2.5949    5.1109    3.4005 H     103  UNL103      0.1146
    411 H           3.7508    5.6048    4.4345 H     103  UNL103      0.1146
    412 H           3.4979    6.4183    3.0477 H     103  UNL103      0.1146
    413 N           2.2608    5.6809    6.0296 N.3   104  UNL104     -0.3437
    414 H           2.5283    4.7983    5.5962 H     104  UNL104      0.1146
    415 H           1.8505    5.4384    6.9304 H     104  UNL104      0.1146
    416 H           3.1319    6.1662    6.2394 H     104  UNL104      0.1146
    417 N           2.7761    5.9913    8.5806 N.3   105  UNL105     -0.3437
    418 H           2.3060    5.1293    8.8532 H     105  UNL105      0.1146
    419 H           3.3292    6.2768    9.3874 H     105  UNL105      0.1146
    420 H           3.4464    5.7296    7.8591 H     105  UNL105      0.1146
    421 N           3.0058    5.8265   11.0492 N.3   106  UNL106     -0.3437
    422 H           3.1391    5.0495   10.4035 H     106  UNL106      0.1146
    423 H           2.8683    5.4077   11.9680 H     106  UNL106      0.1146
    424 H           3.9006    6.3120   11.0930 H     106  UNL106      0.1146
    425 N           2.9234    6.1489   13.7090 N.3   107  UNL107     -0.3437
    426 H           2.4821    5.2781   13.4166 H     107  UNL107      0.1146
    427 H           3.6469    5.8866   14.3769 H     107  UNL107      0.1146
    428 H           3.4134    6.5045   12.8894 H     107  UNL107      0.1146
    429 N           2.9245    5.7836   15.8946 N.3   108  UNL108     -0.3437
    430 H           3.9127    5.5350   15.8945 H     108  UNL108      0.1146
    431 H           2.4133    4.9028   15.8601 H     108  UNL108      0.1146
    432 H           2.7353    6.1824   16.8130 H     108  UNL108      0.1146
    433 N           3.0532    5.7032   18.6844 N.3   109  UNL109     -0.3437
    434 H           2.6115    4.9493   18.1602 H     109  UNL109      0.1146
    435 H           3.7788    5.2647   19.2498 H     109  UNL109      0.1146
    436 H           3.5407    6.2755   17.9966 H     109  UNL109      0.1146
    437 N           3.4964    5.6648   21.7229 N.3   110  UNL110     -0.3437
    438 H           4.3338    6.0584   21.2959 H     110  UNL110      0.1146
    439 H           2.8700    6.4511   21.8894 H     110  UNL110      0.1146
    440 H           3.0520    5.0998   21.0007 H     110  UNL110      0.1146
    441 N           3.3654    6.1073   24.6478 N.3   111  UNL111     -0.3437
    442 H           4.1498    5.7700   25.2040 H     111  UNL111      0.1146
    443 H           3.3468    5.5292   23.8089 H     111  UNL111      0.1146
    444 H           2.5254    5.8677   25.1726 H     111  UNL111      0.1146
    445 N           3.2024    8.4105    1.0561 N.3   112  UNL112     -0.3437
    446 H           2.6898    8.7574    1.8656 H     112  UNL112      0.1146
    447 H           3.8334    9.1616    0.7802 H     112  UNL112      0.1146
    448 H           3.7961    7.6575    1.4011 H     112  UNL112      0.1146
    449 N           3.1541    8.3532    3.5950 N.3   113  UNL113     -0.3437
    450 H           2.6729    8.9167    4.2945 H     113  UNL113      0.1146
    451 H           3.7690    8.9928    3.0937 H     113  UNL113      0.1146
    452 H           3.7657    7.7242    4.1133 H     113  UNL113      0.1146
    453 N           3.1541    8.4405    6.0263 N.3   114  UNL114     -0.3437
    454 H           2.6731    9.0175    6.7147 H     114  UNL114      0.1146
    455 H           3.7672    9.0705    5.5109 H     114  UNL114      0.1146
    456 H           3.7674    7.8232    6.5565 H     114  UNL114      0.1146
    457 N           3.1845    8.3493    8.4229 N.3   115  UNL115     -0.3437
    458 H           2.6096    8.9263    9.0352 H     115  UNL115      0.1146
    459 H           3.8652    8.9793    8.0009 H     115  UNL115      0.1146
    460 H           3.7153    7.7320    9.0356 H     115  UNL115      0.1146
    461 N           3.2005    8.4458   10.9782 N.3   116  UNL116     -0.3437
    462 H           2.7193    9.1038   11.5896 H     116  UNL116      0.1146
    463 H           3.8154    9.0068   10.3902 H     116  UNL116      0.1146
    464 H           3.8121    7.8977   11.5813 H     116  UNL116      0.1146
    465 N           3.1941    8.3532   13.4429 N.3   117  UNL117     -0.3437
    466 H           2.7129    8.9167   14.1424 H     117  UNL117      0.1146
    467 H           3.8090    8.9928   12.9415 H     117  UNL117      0.1146
    468 H           3.8057    7.7242   13.9612 H     117  UNL117      0.1146
    469 N           3.1159    8.1626   15.8972 N.3   118  UNL118     -0.3437
    470 H           2.7748    8.7913   16.6231 H     118  UNL118      0.1146
    471 H           3.7677    8.7090   15.3360 H     118  UNL118      0.1146
    472 H           3.6778    7.4599   16.3756 H     118  UNL118      0.1146
    473 N           3.1198    8.4048   18.3638 N.3   119  UNL119     -0.3437
    474 H           2.8127    9.0543   19.0863 H     119  UNL119      0.1146
    475 H           3.8080    8.9092   17.8066 H     119  UNL119      0.1146
    476 H           3.6341    7.6697   18.8471 H     119  UNL119      0.1146
    477 N           3.3321    8.2002   20.7246 N.3   120  UNL120     -0.3437
    478 H           2.6714    8.5834   21.3992 H     120  UNL120      0.1146
    479 H           3.8998    8.9859   20.4102 H     120  UNL120      0.1146
    480 H           3.9578    7.5966   21.2561 H     120  UNL120      0.1146
    481 N           3.0056    8.5109   23.5111 N.3   121  UNL121     -0.3437
    482 H           3.4470    8.6430   24.4201 H     121  UNL121      0.1146
    483 H           3.4162    9.2113   22.8952 H     121  UNL121      0.1146
    484 H           3.3331    7.6089   23.1683 H     121  UNL121      0.1146
    485 N           3.3169   11.4073    0.5055 N.3   122  UNL122     -0.3437
    486 H           2.8131   10.7601    1.1103 H     122  UNL122      0.1146
    487 H           3.9438   11.9309    1.1148 H     122  UNL122      0.1146
    488 H           3.9153   10.8318   -0.0852 H     122  UNL122      0.1146
    489 N           3.1618   11.2077    3.7441 N.3   123  UNL123     -0.3437
    490 H           2.8885   10.5645    3.0025 H     123  UNL123      0.1146
    491 H           3.5705   10.6319    4.4788 H     123  UNL123      0.1146
    492 H           3.9267   11.7644    3.3654 H     123  UNL123      0.1146
    493 N           3.1491   11.2893    6.3512 N.3   124  UNL124     -0.3437
    494 H           2.5702   10.6508    5.8076 H     124  UNL124      0.1146
    495 H           3.8355   10.7078    6.8298 H     124  UNL124      0.1146
    496 H           3.6726   11.8406    5.6726 H     124  UNL124      0.1146
    497 N           3.1000   11.7869    8.4392 N.3   125  UNL125     -0.3437
    498 H           3.3635   10.8595    8.7691 H     125  UNL125      0.1146
    499 H           2.9233   12.3426    9.2748 H     125  UNL125      0.1146
    500 H           3.9366   12.1811    8.0115 H     125  UNL125      0.1146
    501 N           3.3182   10.8820   11.0507 N.3   126  UNL126     -0.3437
    502 H           2.6158   11.3550   11.6175 H     126  UNL126      0.1146
    503 H           2.8024   10.3031   10.3895 H     126  UNL126      0.1146
    504 H           3.7678   11.6091   10.4961 H     126  UNL126      0.1146
    505 N           3.1219   11.6364   13.4928 N.3   127  UNL127     -0.3437
    506 H           2.1201   11.8068   13.5686 H     127  UNL127      0.1146
    507 H           3.4909   11.7051   14.4402 H     127  UNL127      0.1146
    508 H           3.2209   10.6587   13.2232 H     127  UNL127      0.1146
    509 N           2.9324   10.4952   15.9592 N.3   128  UNL128     -0.3437
    510 H           3.0443   11.5022   16.0677 H     128  UNL128      0.1146
    511 H           2.9964   10.3115   14.9589 H     128  UNL128      0.1146
    512 H           3.7615   10.0739   16.3757 H     128  UNL128      0.1146
    513 N           3.1088   11.1568   18.3723 N.3   129  UNL129     -0.3437
    514 H           3.7832   11.8101   17.9763 H     129  UNL129      0.1146
    515 H           3.1423   10.3266   17.7823 H     129  UNL129      0.1146
    516 H           3.4876   10.8750   19.2753 H     129  UNL129      0.1146
    517 N           3.0576   10.8786   21.2455 N.3   130  UNL130     -0.3437
    518 H           3.8249   10.3176   21.6129 H     130  UNL130      0.1146
    519 H           3.4905   11.6361   20.7191 H     130  UNL130      0.1146
    520 H           2.5855   10.2929   20.5581 H     130  UNL130      0.1146
    521 N           3.1744   10.8308   24.5234 N.3   131  UNL131     -0.3437
    522 H           2.6314   11.6222   24.1811 H     131  UNL131      0.1146
    523 H           3.7382   10.5152   23.7354 H     131  UNL131      0.1146
    524 H           3.8305   11.2131   25.2028 H     131  UNL131      0.1146
    525 N           3.3775   13.8814    1.3457 N.3   132  UNL132     -0.3437
    526 H           3.7951   14.6726    0.8579 H     132  UNL132      0.1146
    527 H           2.7605   14.2805    2.0517 H     132  UNL132      0.1146
    528 H           2.7696   13.4229    0.6684 H     132  UNL132      0.1146
    529 N           3.1484   13.6029    3.8426 N.3   133  UNL133     -0.3437
    530 H           2.8872   12.9012    3.1514 H     133  UNL133      0.1146
    531 H           3.7965   13.1420    4.4797 H     133  UNL133      0.1146
    532 H           3.6961   14.3008    3.3412 H     133  UNL133      0.1146
    533 N           3.2038   13.9539    6.2069 N.3   134  UNL134     -0.3437
    534 H           2.6827   13.2455    5.6921 H     134  UNL134      0.1146
    535 H           3.7579   13.4488    6.8970 H     134  UNL134      0.1146
    536 H           3.8709   14.3482    5.5452 H     134  UNL134      0.1146
    537 N           3.2705   14.1279    8.6812 N.3   135  UNL135     -0.3437
    538 H           3.9112   14.7491    8.1893 H     135  UNL135      0.1146
    539 H           2.7611   14.7146    9.3404 H     135  UNL135      0.1146
    540 H           2.5870   13.8241    7.9892 H     135  UNL135      0.1146
    541 N           3.4395   13.5959   11.2159 N.3   136  UNL136     -0.3437
    542 H           3.0943   14.4873   10.8631 H     136  UNL136      0.1146
    543 H           2.6169   13.0099   11.3517 H     136  UNL136      0.1146
    544 H           3.9615   13.1737   10.4493 H     136  UNL136      0.1146
    545 N           3.1480   13.7913   13.6245 N.3   137  UNL137     -0.3437
    546 H           2.8807   13.1175   12.9085 H     137  UNL137      0.1146
    547 H           3.7999   13.3050   14.2385 H     137  UNL137      0.1146
    548 H           3.6933   14.5074   13.1468 H     137  UNL137      0.1146
    549 N           3.1476   13.4300   16.2767 N.3   138  UNL138     -0.3437
    550 H           2.7059   12.9535   15.4917 H     138  UNL138      0.1146
    551 H           3.8732   12.7999   16.6156 H     138  UNL138      0.1146
    552 H           3.6351   14.2321   15.8800 H     138  UNL138      0.1146
    553 N           3.1880   13.8539   18.6631 N.3   139  UNL139     -0.3437
    554 H           2.6157   13.4073   17.9480 H     139  UNL139      0.1146
    555 H           3.6611   13.0982   19.1567 H     139  UNL139      0.1146
    556 H           3.9163   14.3619   18.1632 H     139  UNL139      0.1146
    557 N           3.4945   13.4728   21.4959 N.3   140  UNL140     -0.3437
    558 H           4.0712   13.9794   20.8257 H     140  UNL140      0.1146
    559 H           3.0941   14.1788   22.1120 H     140  UNL140      0.1146
    560 H           2.7148   13.0904   20.9629 H     140  UNL140      0.1146
    561 N           3.0734   13.7207   24.1521 N.3   141  UNL141     -0.3437
    562 H           3.0812   13.3052   25.0825 H     141  UNL141      0.1146
    563 H           3.6094   14.5842   24.2256 H     141  UNL141      0.1146
    564 H           3.6234   13.0982   23.5618 H     141  UNL141      0.1146
    565 N           3.0734   16.6218   -1.0582 N.3   142  UNL142     -0.3437
    566 H           2.4273   15.9868   -1.5247 H     142  UNL142      0.1146
    567 H           2.5497   17.0427   -0.2922 H     142  UNL142      0.1146
    568 H           3.7818   16.0323   -0.6235 H     142  UNL142      0.1146
    569 N           3.5815   16.4980    1.9008 N.3   143  UNL143     -0.3437
    570 H           4.0110   15.8275    2.5367 H     143  UNL143      0.1146
    571 H           3.0853   15.9453    1.2031 H     143  UNL143      0.1146
    572 H           2.8633   16.9777    2.4416 H     143  UNL143      0.1146
    573 N           3.3104   16.3177    4.2807 N.3   144  UNL144     -0.3437
    574 H           2.8569   16.6245    5.1400 H     144  UNL144      0.1146
    575 H           3.9261   17.0799    4.0005 H     144  UNL144      0.1146
    576 H           3.9212   15.5462    4.5454 H     144  UNL144      0.1146
    577 N           3.3324   16.9494    6.8290 N.3   145  UNL145     -0.3437
    578 H           2.6756   17.1876    7.5708 H     145  UNL145      0.1146
    579 H           3.8971   17.7836    6.6752 H     145  UNL145      0.1146
    580 H           3.9623   16.2529    7.2244 H     145  UNL145      0.1146
    581 N           3.5685   17.1774    9.2697 N.3   146  UNL146     -0.3437
    582 H           3.9668   17.6774    8.4761 H     146  UNL146      0.1146
    583 H           2.7420   17.7047    9.5478 H     146  UNL146      0.1146
    584 H           3.2254   16.2919    8.9002 H     146  UNL146      0.1146
    585 N           3.5787   16.3516   12.0394 N.3   147  UNL147     -0.3437
    586 H           3.3687   16.5780   11.0684 H     147  UNL147      0.1146
    587 H           3.1691   17.0996   12.5972 H     147  UNL147      0.1146
    588 H           3.0406   15.5136   12.2551 H     147  UNL147      0.1146
    589 N           3.1762   16.3374   14.8173 N.3   148  UNL148     -0.3437
    590 H           2.7852   15.9002   13.9841 H     148  UNL148      0.1146
    591 H           3.7425   15.6217   15.2707 H     148  UNL148      0.1146
    592 H           3.8307   17.0434   14.4832 H     148  UNL148      0.1146
    593 N           3.0750   17.3429   17.7598 N.3   149  UNL149     -0.3437
    594 H           3.1590   17.1464   18.7561 H     149  UNL149      0.1146
    595 H           3.8133   18.0107   17.5420 H     149  UNL149      0.1146
    596 H           3.3273   16.4794   17.2810 H     149  UNL149      0.1146
    597 N           3.0459   16.4105   21.0074 N.3   150  UNL150     -0.3437
    598 H           3.4721   17.2520   20.6219 H     150  UNL150      0.1146
    599 H           3.3601   15.6411   20.4176 H     150  UNL150      0.1146
    600 H           3.4837   16.2648   21.9159 H     150  UNL150      0.1146
    601 N           3.0618   17.0497   24.4417 N.3   151  UNL151     -0.3437
    602 H           3.1572   16.3788   25.2028 H     151  UNL151      0.1146
    603 H           3.6123   17.8630   24.7135 H     151  UNL151      0.1146
    604 H           3.5433   16.6388   23.6431 H     151  UNL151      0.1146
    605 N           3.5483   18.9429   -1.4748 N.3   152  UNL152     -0.3437
    606 H           4.0065   18.6026   -0.6307 H     152  UNL152      0.1146
    607 H           2.6547   18.4558   -1.5252 H     152  UNL152      0.1146
    608 H           3.3251   19.9214   -1.2982 H     152  UNL152      0.1146
    609 N           3.0373   19.1438    1.4823 N.3   153  UNL153     -0.3437
    610 H           2.5065   18.4977    0.8998 H     153  UNL153      0.1146
    611 H           3.8237   18.6097    1.8494 H     153  UNL153      0.1146
    612 H           3.4376   19.8316    0.8459 H     153  UNL153      0.1146
    613 N           3.1581   19.9204    3.5327 N.3   154  UNL154     -0.3437
    614 H           2.6618   20.3795    4.2950 H     154  UNL154      0.1146
    615 H           3.7822   20.6237    3.1400 H     154  UNL154      0.1146
    616 H           3.7598   19.2232    3.9688 H     154  UNL154      0.1146
    617 N           3.1166   20.0776    6.0367 N.3   155  UNL155     -0.3437
    618 H           2.8095   20.7272    6.7592 H     155  UNL155      0.1146
    619 H           3.8048   20.5820    5.4796 H     155  UNL155      0.1146
    620 H           3.6309   19.3425    6.5200 H     155  UNL155      0.1146
    621 N           3.1767   19.8592    8.3904 N.3   156  UNL156     -0.3437
    622 H           2.6196   20.0100    9.2302 H     156  UNL156      0.1146
    623 H           3.6934   20.7240    8.2370 H     156  UNL156      0.1146
    624 H           3.8722   19.1566    8.6371 H     156  UNL156      0.1146
    625 N           3.3493   20.4425   10.9665 N.3   157  UNL157     -0.3437
    626 H           2.5806   20.7422   11.5646 H     157  UNL157      0.1146
    627 H           4.2008   20.5992   11.5039 H     157  UNL157      0.1146
    628 H           3.2567   19.4318   10.8755 H     157  UNL157      0.1146
    629 N           3.2218   19.2052   13.7499 N.3   158  UNL158     -0.3437
    630 H           2.5617   18.4558   13.5476 H     158  UNL158      0.1146
    631 H           4.0015   18.7681   14.2394 H     158  UNL158      0.1146
    632 H           3.5896   19.5065   12.8486 H     158  UNL158      0.1146
    633 N           3.1581   19.9951   15.8753 N.3   159  UNL159     -0.3437
    634 H           2.6618   20.5588   16.5639 H     159  UNL159      0.1146
    635 H           3.7822   20.6348   15.3857 H     159  UNL159      0.1146
    636 H           3.7598   19.3677   16.4070 H     159  UNL159      0.1146
    637 N           3.1107   19.8611   18.3905 N.3   160  UNL160     -0.3437
    638 H           2.8290   20.6173   19.0127 H     160  UNL160      0.1146
    639 H           3.7656   20.2725   17.7270 H     160  UNL160      0.1146
    640 H           3.6564   19.2166   18.9608 H     160  UNL160      0.1146
    641 N           3.1233   20.0241   20.8403 N.3   161  UNL161     -0.3437
    642 H           2.7942   20.3017   21.7638 H     161  UNL161      0.1146
    643 H           3.7871   20.7413   20.5514 H     161  UNL161      0.1146
    644 H           3.6700   19.1756   20.9802 H     161  UNL161      0.1146
    645 N           3.6161   19.9114   24.6264 N.3   162  UNL162     -0.3437
    646 H           3.3806   20.1899   23.6749 H     162  UNL162      0.1146
    647 H           3.4844   20.7414   25.2027 H     162  UNL162      0.1146
    648 H           2.8935   19.2528   24.9133 H     162  UNL162      0.1146
    649 N           5.6026    0.5139    1.5206 N.3   163  UNL163     -0.3437
    650 H           6.3356    0.0535    2.0582 H     163  UNL163      0.1146
    651 H           5.9351    1.4612    1.3461 H     163  UNL163      0.1146
    652 H           5.5865    0.0504    0.6133 H     163  UNL163      0.1146
    653 N           5.5790    0.6690    3.8753 N.3   164  UNL164     -0.3437
    654 H           5.0696   -0.0218    3.3260 H     164  UNL164      0.1146
    655 H           6.3036    0.1534    4.3729 H     164  UNL164      0.1146
    656 H           6.0661    1.2592    3.2024 H     164  UNL164      0.1146
    657 N           5.6596    0.5836    6.2539 N.3   165  UNL165     -0.3437
    658 H           5.1463   -0.0362    5.6288 H     165  UNL165      0.1146
    659 H           6.4191    0.0255    6.6413 H     165  UNL165      0.1146
    660 H           6.1005    1.2821    5.6572 H     165  UNL165      0.1146
    661 N           5.8441    0.3605    8.7365 N.3   166  UNL166     -0.3437
    662 H           5.7457   -0.4928    8.1884 H     166  UNL166      0.1146
    663 H           6.5685    0.1688    9.4271 H     166  UNL166      0.1146
    664 H           6.2361    1.0569    8.1043 H     166  UNL166      0.1146
    665 N           5.5584    0.5858   11.3409 N.3   167  UNL167     -0.3437
    666 H           5.0896    0.0343   10.6236 H     167  UNL167      0.1146
    667 H           6.2434   -0.0350   11.7696 H     167  UNL167      0.1146
    668 H           6.0948    1.2954   10.8438 H     167  UNL167      0.1146
    669 N           5.3919    0.6503   13.7151 N.3   168  UNL168     -0.3437
    670 H           5.0294   -0.0030   13.0220 H     168  UNL168      0.1146
    671 H           6.0303    0.1132   14.3003 H     168  UNL168      0.1146
    672 H           5.9716    1.3121   13.2010 H     168  UNL168      0.1146
    673 N           5.5074    0.6622   16.2012 N.3   169  UNL169     -0.3437
    674 H           5.1433    0.0040   15.5138 H     169  UNL169      0.1146
    675 H           6.0868    0.1142   16.8355 H     169  UNL169      0.1146
    676 H           6.1464    1.2730   15.6942 H     169  UNL169      0.1146
    677 N           5.5370    0.7053   18.6287 N.3   170  UNL170     -0.3437
    678 H           5.0062    0.0526   18.0538 H     170  UNL170      0.1146
    679 H           6.1065    0.1331   19.2506 H     170  UNL170      0.1146
    680 H           6.1894    1.1689   17.9979 H     170  UNL170      0.1146
    681 N           3.5538    0.3998   20.8034 N.3   171  UNL171     -0.3437
    682 H           2.9306    0.8306   21.4849 H     171  UNL171      0.1146
    683 H           4.2160    1.1247   20.5307 H     171  UNL171      0.1146
    684 H           4.0940   -0.2953   21.3167 H     171  UNL171      0.1146
    685 N           5.3943    0.8724   24.2103 N.3   172  UNL172     -0.3437
    686 H           5.1184    0.0436   23.6855 H     172  UNL172      0.1146
    687 H           5.7020    0.5379   25.1223 H     172  UNL172      0.1146
    688 H           6.2276    1.2331   23.7478 H     172  UNL172      0.1146
    689 N           5.5400    3.1220    1.0880 N.3   173  UNL173     -0.3437
    690 H           5.3244    4.1154    1.0159 H     173  UNL173      0.1146
    691 H           6.5422    3.0641    1.2629 H     173  UNL173      0.1146
    692 H           5.0869    2.7975    1.9411 H     173  UNL173      0.1146
    693 N           5.5982    3.0752    3.5684 N.3   174  UNL174     -0.3437
    694 H           5.2874    4.0427    3.6443 H     174  UNL174      0.1146
    695 H           6.3947    2.9859    4.1976 H     174  UNL174      0.1146
    696 H           4.8548    2.5088    3.9743 H     174  UNL174      0.1146
    697 N           5.6718    3.0751    5.8785 N.3   175  UNL175     -0.3437
    698 H           6.2237    2.6402    6.6164 H     175  UNL175      0.1146
    699 H           4.6983    2.9870    6.1668 H     175  UNL175      0.1146
    700 H           5.8869    4.0704    5.9163 H     175  UNL175      0.1146
    701 N           5.4082    3.2428    8.2410 N.3   176  UNL176     -0.3437
    702 H           5.6709    2.3085    8.5514 H     176  UNL176      0.1146
    703 H           5.2336    3.7815    9.0882 H     176  UNL176      0.1146
    704 H           6.2448    3.6446    7.8203 H     176  UNL176      0.1146
    705 N           5.5857    3.4482   11.1484 N.3   177  UNL177     -0.3437
    706 H           5.1440    2.6559   11.6126 H     177  UNL177      0.1146
    707 H           6.3113    3.7772   11.7838 H     177  UNL177      0.1146
    708 H           6.0732    3.0641   10.3402 H     177  UNL177      0.1146
    709 N           5.6248    3.3057   13.8390 N.3   178  UNL178     -0.3437
    710 H           6.1175    2.5895   14.3708 H     178  UNL178      0.1146
    711 H           4.9102    2.8156   13.3028 H     178  UNL178      0.1146
    712 H           5.1242    3.8697   14.5243 H     178  UNL178      0.1146
    713 N           5.4693    3.1752   16.5309 N.3   179  UNL179     -0.3437
    714 H           5.2020    2.7325   15.6529 H     179  UNL179      0.1146
    715 H           6.1212    2.5346   16.9814 H     179  UNL179      0.1146
    716 H           6.0146    3.9975   16.2762 H     179  UNL179      0.1146
    717 N           3.3599    3.0642   18.3288 N.3   180  UNL180     -0.3437
    718 H           2.8749    3.5658   19.0715 H     180  UNL180      0.1146
    719 H           4.0027    3.7350   17.9102 H     180  UNL180      0.1146
    720 H           3.9426    2.3692   18.7933 H     180  UNL180      0.1146
    721 N           5.4490    3.2386   21.1914 N.3   181  UNL181     -0.3437
    722 H           5.1216    2.5911   20.4760 H     181  UNL181      0.1146
    723 H           6.1069    2.7135   21.7657 H     181  UNL181      0.1146
    724 H           6.0017    3.9414   20.7026 H     181  UNL181      0.1146
    725 N           5.3687    3.1826   24.4587 N.3   182  UNL182     -0.3437
    726 H           5.7327    2.5891   25.2027 H     182  UNL182      0.1146
    727 H           5.7170    4.1206   24.6519 H     182  UNL182      0.1146
    728 H           5.8351    2.8803   23.6046 H     182  UNL182      0.1146
    729 N           5.6076    6.1159   -0.6549 N.3   183  UNL183     -0.3437
    730 H           6.2253    5.8055    0.0938 H     183  UNL183      0.1146
    731 H           6.2132    6.5118   -1.3726 H     183  UNL183      0.1146
    732 H           5.2090    5.2698   -1.0593 H     183  UNL183      0.1146
    733 N           5.9003    6.0004    2.0408 N.3   184  UNL184     -0.3437
    734 H           5.2626    6.2896    1.3004 H     184  UNL184      0.1146
    735 H           5.8161    4.9869    2.1040 H     184  UNL184      0.1146
    736 H           6.8393    6.1828    1.6897 H     184  UNL184      0.1146
    737 N           5.7417    5.6164    4.5412 N.3   185  UNL185     -0.3437
    738 H           5.3564    6.1333    3.7520 H     185  UNL185      0.1146
    739 H           6.5026    5.0535    4.1637 H     185  UNL185      0.1146
    740 H           6.1792    6.3109    5.1451 H     185  UNL185      0.1146
    741 N           5.0303    5.8358    6.9623 N.3   186  UNL186     -0.3437
    742 H           4.6695    5.4033    6.1130 H     186  UNL186      0.1146
    743 H           5.4270    5.0783    7.5165 H     186  UNL186      0.1146
    744 H           5.8180    6.4128    6.6708 H     186  UNL186      0.1146
    745 N           5.4103    5.7034    9.8715 N.3   187  UNL187     -0.3437
    746 H           4.9727    6.0171    9.0064 H     187  UNL187      0.1146
    747 H           6.0235    4.9318    9.6125 H     187  UNL187      0.1146
    748 H           6.0231    6.4619   10.1674 H     187  UNL187      0.1146
    749 N           5.8940    6.0129   12.1001 N.3   188  UNL188     -0.3437
    750 H           6.4986    5.3960   12.6407 H     188  UNL188      0.1146
    751 H           5.2293    5.4064   11.6219 H     188  UNL188      0.1146
    752 H           5.3515    6.5421   12.7814 H     188  UNL188      0.1146
    753 N           5.5153    5.8066   14.7226 N.3   189  UNL189     -0.3437
    754 H           5.0736    5.5391   13.8441 H     189  UNL189      0.1146
    755 H           6.2409    5.1122   14.8950 H     189  UNL189      0.1146
    756 H           6.0028    6.6819   14.5367 H     189  UNL189      0.1146
    757 N           5.7499    6.0251   17.0266 N.3   190  UNL190     -0.3437
    758 H           6.3435    6.6019   17.6209 H     190  UNL190      0.1146
    759 H           5.6484    5.1342   17.5109 H     190  UNL190      0.1146
    760 H           4.8285    6.4601   17.0430 H     190  UNL190      0.1146
    761 N           5.7726    5.8824   19.7309 N.3   191  UNL191     -0.3437
    762 H           5.3822    5.0897   19.2233 H     191  UNL191      0.1146
    763 H           5.0439    6.5946   19.7430 H     191  UNL191      0.1146
    764 H           5.8789    5.5731   20.6960 H     191  UNL191      0.1146
    765 N           5.6973    5.6951   22.8246 N.3   192  UNL192     -0.3437
    766 H           5.5357    4.6994   22.9688 H     192  UNL192      0.1146
    767 H           5.0987    6.1767   23.4940 H     192  UNL192      0.1146
    768 H           6.6545    5.8709   23.1267 H     192  UNL192      0.1146
    769 N           5.5482    8.4065    1.2937 N.3   193  UNL193     -0.3437
    770 H           4.9730    8.7694    2.0525 H     193  UNL193      0.1146
    771 H           6.2015    9.1514    1.0555 H     193  UNL193      0.1146
    772 H           6.1100    7.6595    1.6997 H     193  UNL193      0.1146
    773 N           5.8403    8.2680    3.5972 N.3   194  UNL194     -0.3437
    774 H           5.3235    8.9356    4.1677 H     194  UNL194      0.1146
    775 H           6.4169    8.8240    2.9673 H     194  UNL194      0.1146
    776 H           6.4872    7.7994    4.2299 H     194  UNL194      0.1146
    777 N           5.5337    8.5315    6.0314 N.3   195  UNL195     -0.3437
    778 H           5.0064    9.2234    6.5622 H     195  UNL195      0.1146
    779 H           6.2157    9.0563    5.4855 H     195  UNL195      0.1146
    780 H           6.0705    8.0014    6.7164 H     195  UNL195      0.1146
    781 N           5.4794    8.3404    8.3662 N.3   196  UNL196     -0.3437
    782 H           4.9831    8.7995    9.1286 H     196  UNL196      0.1146
    783 H           6.1035    9.0438    7.9735 H     196  UNL196      0.1146
    784 H           6.0811    7.6432    8.8024 H     196  UNL196      0.1146
    785 N           5.5388    8.3996   10.8768 N.3   197  UNL197     -0.3437
    786 H           5.1928    9.0172   11.6097 H     197  UNL197      0.1146
    787 H           6.1164    8.9798   10.2701 H     197  UNL197      0.1146
    788 H           6.1768    7.7502   11.3347 H     197  UNL197      0.1146
    789 N           5.4561    8.6457   13.5187 N.3   198  UNL198     -0.3437
    790 H           5.3319    8.0319   14.3226 H     198  UNL198      0.1146
    791 H           6.1907    9.3027   13.7779 H     198  UNL198      0.1146
    792 H           5.8476    8.0642   12.7792 H     198  UNL198      0.1146
    793 N           5.5373    8.3298   15.8902 N.3   199  UNL199     -0.3437
    794 H           5.0055    8.8914   16.5537 H     199  UNL199      0.1146
    795 H           6.1077    8.9869   15.3598 H     199  UNL199      0.1146
    796 H           6.1886    7.7787   16.4474 H     199  UNL199      0.1146
    797 N           5.4951    8.3512   18.3395 N.3   200  UNL200     -0.3437
    798 H           5.1217    8.9631   19.0638 H     200  UNL200      0.1146
    799 H           6.0711    8.9424   17.7419 H     200  UNL200      0.1146
    800 H           6.1384    7.7174   18.8114 H     200  UNL200      0.1146
    801 N           5.5526    8.3278   20.7524 N.3   201  UNL201     -0.3437
    802 H           5.1273    8.8534   21.5148 H     201  UNL201      0.1146
    803 H           6.2712    8.9343   20.3598 H     201  UNL201      0.1146
    804 H           6.0481    7.5515   21.1886 H     201  UNL201      0.1146
    805 N           5.4650    8.3896   23.7939 N.3   202  UNL202     -0.3437
    806 H           5.2647    8.7968   24.7063 H     202  UNL202      0.1146
    807 H           6.0661    9.0579   23.3139 H     202  UNL202      0.1146
    808 H           6.0433    7.5699   23.9730 H     202  UNL202      0.1146
    809 N           5.6012   11.0060    1.7148 N.3   203  UNL203     -0.3437
    810 H           5.1979   10.5124    0.9198 H     203  UNL203      0.1146
    811 H           6.3736   10.4275    2.0422 H     203  UNL203      0.1146
    812 H           6.0248   11.8513    1.3350 H     203  UNL203      0.1146
    813 N           5.6156   11.1070    3.9591 N.3   204  UNL204     -0.3437
    814 H           5.0104   10.5628    3.3459 H     204  UNL204      0.1146
    815 H           6.4694   10.5614    4.0673 H     204  UNL204      0.1146
    816 H           5.8781   11.9373    3.4299 H     204  UNL204      0.1146
    817 N           5.4979   11.2292    6.2511 N.3   205  UNL205     -0.3437
    818 H           5.3095   10.4717    5.5960 H     205  UNL205      0.1146
    819 H           6.0035   10.8083    7.0293 H     205  UNL205      0.1146
    820 H           6.1626   11.8449    5.7847 H     205  UNL205      0.1146
    821 N           5.5361   11.0420    8.8973 N.3   206  UNL206     -0.3437
    822 H           5.0944   10.3959    8.2447 H     206  UNL206      0.1146
    823 H           6.2617   10.5079    9.3734 H     206  UNL206      0.1146
    824 H           6.0236   11.7298    8.3249 H     206  UNL206      0.1146
    825 N           5.5233   11.0452   11.3588 N.3   207  UNL207     -0.3437
    826 H           5.0816   10.3991   10.7063 H     207  UNL207      0.1146
    827 H           6.2489   10.5111   11.8350 H     207  UNL207      0.1146
    828 H           6.0108   11.7330   10.7865 H     207  UNL207      0.1146
    829 N           5.3990   11.2818   13.7779 N.3   208  UNL208     -0.3437
    830 H           5.0253   10.5554   13.1687 H     208  UNL208      0.1146
    831 H           6.0298   10.8095   14.4240 H     208  UNL208      0.1146
    832 H           5.9882   11.8674   13.1878 H     208  UNL208      0.1146
    833 N           5.3470   11.4406   16.3226 N.3   209  UNL209     -0.3437
    834 H           4.8315   11.0748   15.5233 H     209  UNL209      0.1146
    835 H           5.9794   10.6964   16.6135 H     209  UNL209      0.1146
    836 H           5.9389   12.1856   15.9580 H     209  UNL209      0.1146
    837 N           5.4858   11.1332   18.5160 N.3   210  UNL210     -0.3437
    838 H           4.9833   11.5659   19.2898 H     210  UNL210      0.1146
    839 H           6.0953   11.8568   18.1373 H     210  UNL210      0.1146
    840 H           6.1019   10.4381   18.9351 H     210  UNL210      0.1146
    841 N           5.4701   11.3078   21.2017 N.3   211  UNL211     -0.3437
    842 H           5.0186   10.5876   20.6397 H     211  UNL211      0.1146
    843 H           6.0395   10.8135   21.8871 H     211  UNL211      0.1146
    844 H           6.1253   11.7795   20.5800 H     211  UNL211      0.1146
    845 N           5.5084   11.6579   23.7360 N.3   212  UNL212     -0.3437
    846 H           4.7450   11.8224   23.0813 H     212  UNL212      0.1146
    847 H           5.6224   10.6465   23.7862 H     212  UNL212      0.1146
    848 H           6.3489   12.0130   23.2824 H     212  UNL212      0.1146
    849 N           5.6580   13.6901   -0.6445 N.3   213  UNL213     -0.3437
    850 H           5.0945   13.0411   -1.1918 H     213  UNL213      0.1146
    851 H           6.3985   13.1319   -0.2220 H     213  UNL213      0.1146
    852 H           6.1168   14.3012   -1.3186 H     213  UNL213      0.1146
    853 N           5.5795   13.9222    1.6929 N.3   214  UNL214     -0.3437
    854 H           6.2119   13.5095    2.3771 H     214  UNL214      0.1146
    855 H           6.1707   14.4169    1.0264 H     214  UNL214      0.1146
    856 H           5.1714   13.1415    1.1808 H     214  UNL214      0.1146
    857 N           5.5455   13.8486    4.3621 N.3   215  UNL215     -0.3437
    858 H           5.1463   13.4170    3.5298 H     215  UNL215      0.1146
    859 H           6.1805   13.1579    4.7598 H     215  UNL215      0.1146
    860 H           6.1333   14.6113    4.0286 H     215  UNL215      0.1146
    861 N           5.7444   13.7656    6.5067 N.3   216  UNL216     -0.3437
    862 H           5.2152   14.3186    7.1793 H     216  UNL216      0.1146
    863 H           6.3554   13.1636    7.0568 H     216  UNL216      0.1146
    864 H           5.0697   13.1470    6.0590 H     216  UNL216      0.1146
    865 N           5.4955   13.6550    9.2355 N.3   217  UNL217     -0.3437
    866 H           5.1759   13.0579    8.4742 H     217  UNL217      0.1146
    867 H           6.2269   13.1317    9.7148 H     217  UNL217      0.1146
    868 H           5.9601   14.4476    8.7948 H     217  UNL217      0.1146
    869 N           5.8194   13.5969   11.5548 N.3   218  UNL218     -0.3437
    870 H           5.2047   12.8949   11.9642 H     218  UNL218      0.1146
    871 H           5.2079   14.2885   11.1233 H     218  UNL218      0.1146
    872 H           6.2680   14.0689   12.3386 H     218  UNL218      0.1146
    873 N           5.4891   14.0194   14.4420 N.3   219  UNL219     -0.3437
    874 H           6.1186   13.2439   14.6437 H     219  UNL219      0.1146
    875 H           6.0778   14.8482   14.3720 H     219  UNL219      0.1146
    876 H           5.1281   13.8514   13.5040 H     219  UNL219      0.1146
    877 N           5.4767   14.6377   16.9627 N.3   220  UNL220     -0.3437
    878 H           6.0494   14.1786   17.6695 H     220  UNL220      0.1146
    879 H           6.1005   15.2700   16.4631 H     220  UNL220      0.1146
    880 H           5.2189   13.9122   16.2953 H     220  UNL220      0.1146
    881 N           5.4799   13.5874   19.6810 N.3   221  UNL221     -0.3437
    882 H           5.7993   13.7183   20.6397 H     221  UNL221      0.1146
    883 H           5.5040   14.5097   19.2484 H     221  UNL221      0.1146
    884 H           6.2031   13.0402   19.2162 H     221  UNL221      0.1146
    885 N           5.4197   13.7552   24.7400 N.3   222  UNL222     -0.3437
    886 H           5.6999   13.6363   23.7675 H     222  UNL222      0.1146
    887 H           5.6345   12.8737   25.2039 H     222  UNL222      0.1146
    888 H           6.0595   14.4432   25.1345 H     222  UNL222      0.1146
    889 N           5.4679   16.4242    1.1529 N.3   223  UNL223     -0.3437
    890 H           4.9076   15.8624    0.5136 H     223  UNL223      0.1146
    891 H           6.2221   15.8180    1.4724 H     223  UNL223      0.1146
    892 H           5.9088   17.1438    0.5817 H     223  UNL223      0.1146
    893 N           5.9212   16.2905    3.7024 N.3   224  UNL224     -0.3437
    894 H           5.6016   17.2580    3.7159 H     224  UNL224      0.1146
    895 H           5.4719   15.8352    4.4956 H     224  UNL224      0.1146
    896 H           5.5117   15.8711    2.8689 H     224  UNL224      0.1146
    897 N           5.8780   16.3118    5.9082 N.3   225  UNL225     -0.3437
    898 H           5.8693   17.2218    6.3666 H     225  UNL225      0.1146
    899 H           6.2801   15.6617    6.5820 H     225  UNL225      0.1146
    900 H           4.9013   16.0402    5.8044 H     225  UNL225      0.1146
    901 N           5.6548   16.4200    8.2540 N.3   226  UNL226     -0.3437
    902 H           5.0500   15.6843    8.6163 H     226  UNL226      0.1146
    903 H           5.7081   17.1261    8.9869 H     226  UNL226      0.1146
    904 H           6.5862   16.0116    8.1894 H     226  UNL226      0.1146
    905 N           5.7622   16.5777   11.1136 N.3   227  UNL227     -0.3437
    906 H           6.4014   16.1175   10.4670 H     227  UNL227      0.1146
    907 H           4.9908   16.9258   10.5460 H     227  UNL227      0.1146
    908 H           5.3711   15.8385   11.6958 H     227  UNL227      0.1146
    909 N           5.8345   16.2862   13.8168 N.3   228  UNL228     -0.3437
    910 H           5.7386   17.2556   13.5179 H     228  UNL228      0.1146
    911 H           4.8941   15.8940   13.8042 H     228  UNL228      0.1146
    912 H           6.3463   15.8125   13.0739 H     228  UNL228      0.1146
    913 N           5.1664   17.0719   16.3635 N.3   229  UNL229     -0.3437
    914 H           5.1363   16.4723   15.5401 H     229  UNL229      0.1146
    915 H           5.7839   16.6067   17.0273 H     229  UNL229      0.1146
    916 H           5.6518   17.9204   16.0756 H     229  UNL229      0.1146
    917 N           5.6064   16.8709   18.8172 N.3   230  UNL230     -0.3437
    918 H           4.8860   16.3349   18.3354 H     230  UNL230      0.1146
    919 H           6.3830   16.2280   18.9652 H     230  UNL230      0.1146
    920 H           5.9381   17.5621   18.1460 H     230  UNL230      0.1146
    921 N           5.4201   16.3476   20.8732 N.3   231  UNL231     -0.3437
    922 H           5.2440   16.4973   21.8657 H     231  UNL231      0.1146
    923 H           6.0617   17.0859   20.5873 H     231  UNL231      0.1146
    924 H           5.9469   15.4776   20.8095 H     231  UNL231      0.1146
    925 N           5.4663   16.4877   24.2883 N.3   232  UNL232     -0.3437
    926 H           5.2396   15.9572   25.1283 H     232  UNL232      0.1146
    927 H           6.0731   17.2481   24.5917 H     232  UNL232      0.1146
    928 H           6.0474   15.8754   23.7177 H     232  UNL232      0.1146
    929 N           5.6914   20.3099   -1.4406 N.3   233  UNL233     -0.3437
    930 H           4.8854   20.6822   -0.9405 H     233  UNL233      0.1146
    931 H           6.5102   20.7425   -1.0153 H     233  UNL233      0.1146
    932 H           5.7393   19.3210   -1.1996 H     233  UNL233      0.1146
    933 N           5.5710   20.1707    0.9992 N.3   234  UNL234     -0.3437
    934 H           4.8913   20.6581    1.5813 H     234  UNL234      0.1146
    935 H           6.4253   20.7246    1.0413 H     234  UNL234      0.1146
    936 H           5.7786   19.2973    1.4812 H     234  UNL234      0.1146
    937 N           5.5210   19.8804    3.5327 N.3   235  UNL235     -0.3437
    938 H           5.0247   20.3395    4.2950 H     235  UNL235      0.1146
    939 H           6.1451   20.5837    3.1400 H     235  UNL235      0.1146
    940 H           6.1227   19.1832    3.9688 H     235  UNL235      0.1146
    941 N           5.5210   19.6702    6.0162 N.3   236  UNL236     -0.3437
    942 H           5.0247   20.2340    6.7048 H     236  UNL236      0.1146
    943 H           6.1451   20.3100    5.5266 H     236  UNL236      0.1146
    944 H           6.1227   19.0428    6.5479 H     236  UNL236      0.1146
    945 N           5.4863   20.0735    8.4837 N.3   237  UNL237     -0.3437
    946 H           5.1571   20.4808    9.3578 H     237  UNL237      0.1146
    947 H           6.1500   20.7419    8.0948 H     237  UNL237      0.1146
    948 H           6.0329   19.2539    8.7439 H     237  UNL237      0.1146
    949 N           5.5250   19.1049   11.3278 N.3   238  UNL238     -0.3437
    950 H           5.0256   18.6286   10.5781 H     238  UNL238      0.1146
    951 H           6.1502   18.4105   11.7344 H     238  UNL238      0.1146
    952 H           6.1254   19.7915   10.8734 H     238  UNL238      0.1146
    953 N           5.8528   20.2084   13.6215 N.3   239  UNL239     -0.3437
    954 H           6.2104   20.7419   12.8303 H     239  UNL239      0.1146
    955 H           4.9619   20.6365   13.8692 H     239  UNL239      0.1146
    956 H           5.6284   19.2833   13.2581 H     239  UNL239      0.1146
    957 N           5.5210   20.0388   15.8565 N.3   240  UNL240     -0.3437
    958 H           5.0247   20.4979   16.6189 H     240  UNL240      0.1146
    959 H           6.1451   20.7421   15.4638 H     240  UNL240      0.1146
    960 H           6.1227   19.3416   16.2927 H     240  UNL240      0.1146
    961 N           5.5018   19.8094   18.3401 N.3   241  UNL241     -0.3437
    962 H           5.0055   20.3732   19.0287 H     241  UNL241      0.1146
    963 H           6.1259   20.4492   17.8505 H     241  UNL241      0.1146
    964 H           6.1035   19.1821   18.8717 H     241  UNL241      0.1146
    965 N           5.4863   19.9471   20.8075 N.3   242  UNL242     -0.3437
    966 H           5.1571   20.3543   21.6817 H     242  UNL242      0.1146
    967 H           6.1500   20.6154   20.4187 H     242  UNL242      0.1146
    968 H           6.0329   19.1275   21.0677 H     242  UNL242      0.1146
    969 N           5.8704   19.2348   23.3691 N.3   243  UNL243     -0.3437
    970 H           6.3942   18.4166   23.0615 H     243  UNL243      0.1146
    971 H           4.9247   19.1146   23.0090 H     243  UNL243      0.1146
    972 H           5.7970   19.1567   24.3824 H     243  UNL243      0.1146
    973 N           7.9075   -1.0626    1.0957 N.3   244  UNL244     -0.3437
    974 H           8.7330   -0.8080    1.6361 H     244  UNL244      0.1146
    975 H           8.2122   -1.7790    0.4382 H     244  UNL244      0.1146
    976 H           7.2781   -1.5290    1.7474 H     244  UNL244      0.1146
    977 N           8.0493   -1.2158    3.8329 N.3   245  UNL245     -0.3437
    978 H           7.3430   -0.7074    3.3027 H     245  UNL245      0.1146
    979 H           8.6958   -1.5986    3.1444 H     245  UNL245      0.1146
    980 H           8.5740   -0.5112    4.3493 H     245  UNL245      0.1146
    981 N           7.9361   -1.0065    6.4586 N.3   246  UNL246     -0.3437
    982 H           7.4596   -1.4959    5.7024 H     246  UNL246      0.1146
    983 H           8.8867   -1.3732    6.4754 H     246  UNL246      0.1146
    984 H           8.0148   -0.0357    6.1592 H     246  UNL246      0.1146
    985 N           8.2281    0.6338    8.4820 N.3   247  UNL247     -0.3437
    986 H           8.4891   -0.0398    9.2008 H     247  UNL247      0.1146
    987 H           7.5871    0.1450    7.8586 H     247  UNL247      0.1146
    988 H           7.6728    1.3464    8.9533 H     247  UNL247      0.1146
    989 N           7.8955    0.1847   11.2252 N.3   248  UNL248     -0.3437
    990 H           7.5333   -0.4883   10.5512 H     248  UNL248      0.1146
    991 H           8.4755   -0.3491   11.8711 H     248  UNL248      0.1146
    992 H           8.5337    0.7862   10.7062 H     248  UNL248      0.1146
    993 N           7.8673    0.6671   13.7462 N.3   249  UNL249     -0.3437
    994 H           7.3333    0.1920   13.0199 H     249  UNL249      0.1146
    995 H           8.4342   -0.0518   14.1936 H     249  UNL249      0.1146
    996 H           8.5215    1.2782   13.2595 H     249  UNL249      0.1146
    997 N           7.8941    0.7466   16.1747 N.3   250  UNL250     -0.3437
    998 H           7.5230    0.0848   15.4946 H     250  UNL250      0.1146
    999 H           8.5157    0.2103   16.7783 H     250  UNL250      0.1146
   1000 H           8.4924    1.3829   15.6499 H     250  UNL250      0.1146
   1001 N           7.8875    0.6889   18.6498 N.3   251  UNL251     -0.3437
   1002 H           7.3725    0.0893   18.0067 H     251  UNL251      0.1146
   1003 H           8.4656    0.0662   19.2124 H     251  UNL251      0.1146
   1004 H           8.5332    1.2283   18.0749 H     251  UNL251      0.1146
   1005 N           5.9742    0.4738   21.2674 N.3   252  UNL252     -0.3437
   1006 H           6.3080    0.6270   22.2179 H     252  UNL252      0.1146
   1007 H           6.1538    1.3411   20.7635 H     252  UNL252      0.1146
   1008 H           6.5971   -0.2220   20.8597 H     252  UNL252      0.1146
   1009 N           8.1961    0.0434   24.4536 N.3   253  UNL253     -0.3437
   1010 H           8.7831    0.8752   24.4977 H     253  UNL253      0.1146
   1011 H           7.5133    0.1414   25.2036 H     253  UNL253      0.1146
   1012 H           7.6703    0.1165   23.5838 H     253  UNL253      0.1146
   1013 N           8.0405    1.3986    1.4526 N.3   254  UNL254     -0.3437
   1014 H           7.4177    0.8259    0.8847 H     254  UNL254      0.1146
   1015 H           8.5603    0.7494    2.0414 H     254  UNL254      0.1146
   1016 H           8.7204    1.7987    0.8075 H     254  UNL254      0.1146
   1017 N           7.9830    1.6410    3.7852 N.3   255  UNL255     -0.3437
   1018 H           7.6601    0.8032    3.3032 H     255  UNL255      0.1146
   1019 H           8.4086    1.3192    4.6533 H     255  UNL255      0.1146
   1020 H           8.7447    2.0140    3.2203 H     255  UNL255      0.1146
   1021 N           8.1814    3.2089    6.4927 N.3   256  UNL256     -0.3437
   1022 H           7.6040    3.6687    5.7902 H     256  UNL256      0.1146
   1023 H           8.4179    2.2955    6.1079 H     256  UNL256      0.1146
   1024 H           9.0541    3.7339    6.5264 H     256  UNL256      0.1146
   1025 N           8.0069    3.4293    8.6828 N.3   257  UNL257     -0.3437
   1026 H           8.5259    3.8077    9.4739 H     257  UNL257      0.1146
   1027 H           8.5697    2.6617    8.3189 H     257  UNL257      0.1146
   1028 H           7.1692    3.0019    9.0751 H     257  UNL257      0.1146
   1029 N           7.7660    2.6247   11.3422 N.3   258  UNL258     -0.3437
   1030 H           8.5009    2.1305   11.8464 H     258  UNL258      0.1146
   1031 H           8.0566    3.6008   11.3077 H     258  UNL258      0.1146
   1032 H           7.8070    2.2854   10.3822 H     258  UNL258      0.1146
   1033 N           7.8460    3.2487   13.7220 N.3   259  UNL259     -0.3437
   1034 H           7.2427    2.5755   13.2518 H     259  UNL259      0.1146
   1035 H           8.4973    2.6997   14.2813 H     259  UNL259      0.1146
   1036 H           8.4039    3.6855   12.9896 H     259  UNL259      0.1146
   1037 N           7.8686    3.3848   16.1979 N.3   260  UNL260     -0.3437
   1038 H           7.2422    2.8600   15.5893 H     260  UNL260      0.1146
   1039 H           8.3934    2.6900   16.7272 H     260  UNL260      0.1146
   1040 H           8.5434    3.8378   15.5831 H     260  UNL260      0.1146
   1041 N           5.6552    3.0706   18.6584 N.3   261  UNL261     -0.3437
   1042 H           5.0799    3.5387   19.3573 H     261  UNL261      0.1146
   1043 H           6.3084    3.7736   18.3158 H     261  UNL261      0.1146
   1044 H           6.2169    2.3896   19.1674 H     261  UNL261      0.1146
   1045 N           7.7854    3.3160   21.2510 N.3   262  UNL262     -0.3437
   1046 H           7.3797    2.6229   20.6238 H     262  UNL262      0.1146
   1047 H           8.3507    2.7937   21.9189 H     262  UNL262      0.1146
   1048 H           8.4422    3.8543   20.6877 H     262  UNL262      0.1146
   1049 N           7.8686    2.9058   24.6139 N.3   263  UNL263     -0.3437
   1050 H           8.7794    2.7213   25.0319 H     263  UNL263      0.1146
   1051 H           7.4268    3.6104   25.2027 H     263  UNL263      0.1146
   1052 H           8.0560    3.3622   23.7223 H     263  UNL263      0.1146
   1053 N           7.8097    4.2693    1.1338 N.3   264  UNL264     -0.3437
   1054 H           7.7544    4.9714    1.8703 H     264  UNL264      0.1146
   1055 H           8.5622    4.5694    0.5156 H     264  UNL264      0.1146
   1056 H           8.1389    3.4161    1.5833 H     264  UNL264      0.1146
   1057 N           8.2660    3.9537    3.5656 N.3   265  UNL265     -0.3437
   1058 H           8.2610    4.9018    3.9391 H     265  UNL265      0.1146
   1059 H           8.2030    3.3338    4.3720 H     265  UNL265      0.1146
   1060 H           7.3879    3.8464    3.0598 H     265  UNL265      0.1146
   1061 N           7.6775    5.9567    6.0689 N.3   266  UNL266     -0.3437
   1062 H           7.0673    5.2274    6.4352 H     266  UNL266      0.1146
   1063 H           8.3444    6.1639    6.8109 H     266  UNL266      0.1146
   1064 H           8.2159    5.5228    5.3205 H     266  UNL266      0.1146
   1065 N           7.2873    5.6975    8.5123 N.3   267  UNL267     -0.3437
   1066 H           7.9088    6.2008    9.1437 H     267  UNL267      0.1146
   1067 H           6.8891    6.4002    7.8909 H     267  UNL267      0.1146
   1068 H           7.8887    5.1164    7.9302 H     267  UNL267      0.1146
   1069 N           7.7010    5.9941   10.9277 N.3   268  UNL268     -0.3437
   1070 H           7.8913    6.2928   11.8832 H     268  UNL268      0.1146
   1071 H           8.5987    5.7100   10.5381 H     268  UNL268      0.1146
   1072 H           7.1462    5.1428   11.0047 H     268  UNL268      0.1146
   1073 N           7.7917    5.8276   13.9791 N.3   269  UNL269     -0.3437
   1074 H           8.6835    6.1950   14.3079 H     269  UNL269      0.1146
   1075 H           7.3019    6.6153   13.5572 H     269  UNL269      0.1146
   1076 H           8.0144    5.1929   13.2136 H     269  UNL269      0.1146
   1077 N           7.9086    5.9582   16.4171 N.3   270  UNL270     -0.3437
   1078 H           7.4408    5.2727   15.8257 H     270  UNL270      0.1146
   1079 H           8.5155    5.4254   17.0385 H     270  UNL270      0.1146
   1080 H           8.5283    6.4835   15.8019 H     270  UNL270      0.1146
   1081 N           7.9734    6.0197   18.7318 N.3   271  UNL271     -0.3437
   1082 H           8.4460    6.6115   18.0501 H     271  UNL271      0.1146
   1083 H           7.5092    6.6539   19.3804 H     271  UNL271      0.1146
   1084 H           7.2293    5.5443   18.2231 H     271  UNL271      0.1146
   1085 N           8.2186    6.0029   21.1100 N.3   272  UNL272     -0.3437
   1086 H           8.2091    5.4578   21.9709 H     272  UNL272      0.1146
   1087 H           8.4187    5.3416   20.3610 H     272  UNL272      0.1146
   1088 H           7.2588    6.3119   20.9627 H     272  UNL272      0.1146
   1089 N           8.0192    5.5557   24.7345 N.3   273  UNL273     -0.3437
   1090 H           7.2013    6.1598   24.8020 H     273  UNL273      0.1146
   1091 H           8.2698    5.5316   23.7471 H     273  UNL273      0.1146
   1092 H           8.7749    6.0527   25.2040 H     273  UNL273      0.1146
   1093 N           7.8245    7.9436    1.1983 N.3   274  UNL274     -0.3437
   1094 H           8.0909    8.3209    2.1066 H     274  UNL274      0.1146
   1095 H           8.0096    8.6829    0.5218 H     274  UNL274      0.1146
   1096 H           8.4938    7.2027    0.9947 H     274  UNL274      0.1146
   1097 N           8.0907    6.7523    3.6992 N.3   275  UNL275     -0.3437
   1098 H           8.1072    7.7665    3.7960 H     275  UNL275      0.1146
   1099 H           7.1379    6.5112    3.4302 H     275  UNL275      0.1146
   1100 H           8.6734    6.5377    2.8912 H     275  UNL275      0.1146
   1101 N           7.8388    8.3646    6.3434 N.3   276  UNL276     -0.3437
   1102 H           8.4546    7.6981    6.8070 H     276  UNL276      0.1146
   1103 H           8.3619    9.2373    6.2859 H     276  UNL276      0.1146
   1104 H           7.7379    8.0341    5.3848 H     276  UNL276      0.1146
   1105 N           7.9345    8.2835    8.4364 N.3   277  UNL277     -0.3437
   1106 H           7.3297    8.9241    8.9485 H     277  UNL277      0.1146
   1107 H           8.6273    8.8655    7.9676 H     277  UNL277      0.1146
   1108 H           8.4441    7.7538    9.1421 H     277  UNL277      0.1146
   1109 N           7.8432    8.5784   10.9708 N.3   278  UNL278     -0.3437
   1110 H           7.5315    9.2647   11.6565 H     278  UNL278      0.1146
   1111 H           8.5277    9.0562   10.3864 H     278  UNL278      0.1146
   1112 H           8.3628    7.8749   11.4937 H     278  UNL278      0.1146
   1113 N           7.8456    8.5431   13.7582 N.3   279  UNL279     -0.3437
   1114 H           7.5483    8.1280   12.8763 H     279  UNL279      0.1146
   1115 H           8.4095    7.8348   14.2260 H     279  UNL279      0.1146
   1116 H           8.4874    9.2955   13.5122 H     279  UNL279      0.1146
   1117 N           7.8839    8.6199   15.8753 N.3   280  UNL280     -0.3437
   1118 H           7.3876    9.1837   16.5639 H     280  UNL280      0.1146
   1119 H           8.5080    9.2597   15.3857 H     280  UNL280      0.1146
   1120 H           8.4856    7.9925   16.4070 H     280  UNL280      0.1146
   1121 N           7.8783    8.6357   18.3533 N.3   281  UNL281     -0.3437
   1122 H           7.3973    9.2128   19.0418 H     281  UNL281      0.1146
   1123 H           8.4915    9.2657   17.8380 H     281  UNL281      0.1146
   1124 H           8.4916    8.0184   18.8835 H     281  UNL281      0.1146
   1125 N           7.8948    8.5518   21.1470 N.3   282  UNL282     -0.3437
   1126 H           7.5214    9.0534   21.9516 H     282  UNL282      0.1146
   1127 H           8.4708    9.2226   20.6405 H     282  UNL282      0.1146
   1128 H           8.5381    7.8568   21.5231 H     282  UNL282      0.1146
   1129 N           7.9960    8.2391   25.0716 N.3   283  UNL283     -0.3437
   1130 H           7.2958    8.9555   24.8847 H     283  UNL283      0.1146
   1131 H           8.0968    7.7121   24.2053 H     283  UNL283      0.1146
   1132 H           8.8767    8.7347   25.2028 H     283  UNL283      0.1146
   1133 N           7.9438   11.0401    1.0789 N.3   284  UNL284     -0.3437
   1134 H           7.5658   11.5118    1.8993 H     284  UNL284      0.1146
   1135 H           8.7559   11.5842    0.7912 H     284  UNL284      0.1146
   1136 H           8.3069   10.1476    1.4105 H     284  UNL284      0.1146
   1137 N           8.3423   11.0516    3.8783 N.3   285  UNL285     -0.3437
   1138 H           7.9967   10.1042    3.7324 H     285  UNL285      0.1146
   1139 H           8.5324   11.4273    2.9503 H     285  UNL285      0.1146
   1140 H           7.5538   11.5854    4.2412 H     285  UNL285      0.1146
   1141 N           7.9214   11.3844    6.3238 N.3   286  UNL286     -0.3437
   1142 H           7.4797   10.6304    5.7996 H     286  UNL286      0.1146
   1143 H           8.6470   10.9458    6.8891 H     286  UNL286      0.1146
   1144 H           8.4089   11.9567    5.6359 H     286  UNL286      0.1146
   1145 N           7.9164   11.2121    8.8049 N.3   287  UNL287     -0.3437
   1146 H           7.4839   10.6039    8.1112 H     287  UNL287      0.1146
   1147 H           8.4315   10.5983    9.4344 H     287  UNL287      0.1146
   1148 H           8.6190   11.7543    8.3041 H     287  UNL287      0.1146
   1149 N           7.9675   11.2048   11.2989 N.3   288  UNL288     -0.3437
   1150 H           7.3261   10.7789   10.6313 H     288  UNL288      0.1146
   1151 H           8.5022   10.4375   11.7035 H     288  UNL288      0.1146
   1152 H           8.6294   11.7472   10.7457 H     288  UNL288      0.1146
   1153 N           7.9043   11.3574   13.6937 N.3   289  UNL289     -0.3437
   1154 H           7.5086   10.6206   13.1115 H     289  UNL289      0.1146
   1155 H           8.5267   10.8912   14.3522 H     289  UNL289      0.1146
   1156 H           8.5047   11.9074   13.0810 H     289  UNL289      0.1146
   1157 N           7.9552   11.1743   16.2581 N.3   290  UNL290     -0.3437
   1158 H           7.4496   10.6577   15.5399 H     290  UNL290      0.1146
   1159 H           8.5828   10.5028   16.6979 H     290  UNL290      0.1146
   1160 H           8.5527   11.8337   15.7616 H     290  UNL290      0.1146
   1161 N           7.8945   11.1825   18.7311 N.3   291  UNL291     -0.3437
   1162 H           7.5213   10.6001   17.9828 H     291  UNL291      0.1146
   1163 H           8.5870   10.6109   19.2130 H     291  UNL291      0.1146
   1164 H           8.4159   11.9285   18.2729 H     291  UNL291      0.1146
   1165 N           7.8952   11.2478   21.2085 N.3   292  UNL292     -0.3437
   1166 H           7.3804   10.6533   20.5605 H     292  UNL292      0.1146
   1167 H           8.5092   10.6261   21.7328 H     292  UNL292      0.1146
   1168 H           8.5059   11.8268   20.6339 H     292  UNL292      0.1146
   1169 N           7.8204   10.8996   24.5406 N.3   293  UNL293     -0.3437
   1170 H           8.7091   10.5030   24.8428 H     293  UNL293      0.1146
   1171 H           8.0221   11.8576   24.2577 H     293  UNL293      0.1146
   1172 H           7.5664   10.4026   23.6881 H     293  UNL293      0.1146
   1173 N           7.9314   13.7687    1.3769 N.3   294  UNL294     -0.3437
   1174 H           7.6247   12.9802    0.8090 H     294  UNL294      0.1146
   1175 H           8.6414   13.4006    2.0084 H     294  UNL294      0.1146
   1176 H           8.4196   14.3989    0.7423 H     294  UNL294      0.1146
   1177 N           7.8062   13.5015    3.8722 N.3   295  UNL295     -0.3437
   1178 H           7.5451   12.8619    3.1232 H     295  UNL295      0.1146
   1179 H           8.5785   13.0561    4.3656 H     295  UNL295      0.1146
   1180 H           8.2010   14.3225    3.4155 H     295  UNL295      0.1146
   1181 N           7.8070   14.5908    5.9779 N.3   296  UNL296     -0.3437
   1182 H           7.3492   14.6793    6.8839 H     296  UNL296      0.1146
   1183 H           8.4401   15.3859    5.9042 H     296  UNL296      0.1146
   1184 H           8.4001   13.7647    6.0424 H     296  UNL296      0.1146
   1185 N           7.9244   13.6644    8.7275 N.3   297  UNL297     -0.3437
   1186 H           7.2608   13.0236    8.2948 H     297  UNL297      0.1146
   1187 H           8.5450   13.0867    9.2928 H     297  UNL297      0.1146
   1188 H           8.4965   14.0313    7.9683 H     297  UNL297      0.1146
   1189 N           7.8934   13.8376   11.2924 N.3   298  UNL298     -0.3437
   1190 H           7.5943   13.0489   10.7206 H     298  UNL298      0.1146
   1191 H           8.6523   13.4893   11.8764 H     298  UNL298      0.1146
   1192 H           8.3171   14.5055   10.6499 H     298  UNL298      0.1146
   1193 N           7.8040   13.7806   13.8245 N.3   299  UNL299     -0.3437
   1194 H           7.4881   13.1808   13.0636 H     299  UNL299      0.1146
   1195 H           8.4869   13.2345   14.3477 H     299  UNL299      0.1146
   1196 H           8.3262   14.5382   13.3866 H     299  UNL299      0.1146
   1197 N           7.7660   13.8690   16.2182 N.3   300  UNL300     -0.3437
   1198 H           7.3520   13.1751   15.5974 H     300  UNL300      0.1146
   1199 H           8.3869   13.3540   16.8408 H     300  UNL300      0.1146
   1200 H           8.3697   14.4448   15.6330 H     300  UNL300      0.1146
   1201 N           7.9127   13.8604   18.6481 N.3   301  UNL301     -0.3437
   1202 H           7.4923   13.1599   18.0391 H     301  UNL301      0.1146
   1203 H           8.4522   13.3432   19.3407 H     301  UNL301      0.1146
   1204 H           8.5936   14.3577   18.0759 H     301  UNL301      0.1146
   1205 N           7.5811   14.0767   21.2890 N.3   302  UNL302     -0.3437
   1206 H           7.2395   13.2716   20.7659 H     302  UNL302      0.1146
   1207 H           8.0874   13.6982   22.0882 H     302  UNL302      0.1146
   1208 H           8.2820   14.5196   20.6966 H     302  UNL302      0.1146
   1209 N           8.0772   13.9454   24.6520 N.3   303  UNL303     -0.3437
   1210 H           7.6177   13.2222   25.2036 H     303  UNL303      0.1146
   1211 H           9.0626   13.6883   24.6169 H     303  UNL303      0.1146
   1212 H           7.7253   13.8398   23.7015 H     303  UNL303      0.1146
   1213 N           7.8632   16.8432   -0.6205 N.3   304  UNL304     -0.3437
   1214 H           8.5586   16.9347    0.1186 H     304  UNL304      0.1146
   1215 H           8.3173   17.1636   -1.4747 H     304  UNL304      0.1146
   1216 H           7.7117   15.8428   -0.7413 H     304  UNL304      0.1146
   1217 N           7.8978   16.2899    2.2514 N.3   305  UNL305     -0.3437
   1218 H           7.5408   16.4496    1.3105 H     305  UNL305      0.1146
   1219 H           8.4638   15.4443    2.1974 H     305  UNL305      0.1146
   1220 H           8.5483   17.0518    2.4380 H     305  UNL305      0.1146
   1221 N           8.0704   17.3238    4.4612 N.3   306  UNL306     -0.3437
   1222 H           8.8084   17.5018    5.1409 H     306  UNL306      0.1146
   1223 H           7.6047   16.4712    4.7690 H     306  UNL306      0.1146
   1224 H           7.3911   18.0738    4.5813 H     306  UNL306      0.1146
   1225 N           7.7867   17.3326    7.2887 N.3   307  UNL307     -0.3437
   1226 H           7.6123   17.3983    6.2869 H     307  UNL307      0.1146
   1227 H           8.2463   16.4351    7.4355 H     307  UNL307      0.1146
   1228 H           8.4855   18.0437    7.4994 H     307  UNL307      0.1146
   1229 N           8.2271   16.5021    9.2533 N.3   308  UNL308     -0.3437
   1230 H           8.7517   16.4370   10.1244 H     308  UNL308      0.1146
   1231 H           7.8815   15.5626    9.0626 H     308  UNL308      0.1146
   1232 H           7.4048   17.0667    9.4622 H     308  UNL308      0.1146
   1233 N           7.8103   16.7547   11.6528 N.3   309  UNL309     -0.3437
   1234 H           7.2351   17.1176   12.4116 H     309  UNL309      0.1146
   1235 H           8.4636   17.4996   11.4146 H     309  UNL309      0.1146
   1236 H           8.3721   16.0077   12.0587 H     309  UNL309      0.1146
   1237 N           8.0096   16.4418   14.1384 N.3   310  UNL310     -0.3437
   1238 H           8.8083   16.4764   14.7703 H     310  UNL310      0.1146
   1239 H           7.4183   15.6830   14.4744 H     310  UNL310      0.1146
   1240 H           7.4849   17.3000   14.3017 H     310  UNL310      0.1146
   1241 N           7.8794   16.8076   16.3724 N.3   311  UNL311     -0.3437
   1242 H           7.4006   17.0318   17.2435 H     311  UNL311      0.1146
   1243 H           8.4985   17.5941   16.1817 H     311  UNL311      0.1146
   1244 H           8.4867   16.0164   16.5813 H     311  UNL311      0.1146
   1245 N           7.8877   16.7372   21.1880 N.3   312  UNL312     -0.3437
   1246 H           7.5483   16.0764   20.4905 H     312  UNL312      0.1146
   1247 H           8.5357   16.2159   21.7769 H     312  UNL312      0.1146
   1248 H           8.4535   17.4158   20.6803 H     312  UNL312      0.1146
   1249 N           7.8597   16.4642   24.2761 N.3   313  UNL313     -0.3437
   1250 H           7.4830   16.2548   25.1995 H     313  UNL313      0.1146
   1251 H           8.5428   17.2078   24.4134 H     313  UNL313      0.1146
   1252 H           8.3924   15.6416   23.9969 H     313  UNL313      0.1146
   1253 N           8.1623   19.0264   -1.4578 N.3   314  UNL314     -0.3437
   1254 H           8.7504   18.6029   -0.7416 H     314  UNL314      0.1146
   1255 H           7.2915   18.4971   -1.4554 H     314  UNL314      0.1146
   1256 H           7.9266   19.9563   -1.1141 H     314  UNL314      0.1146
   1257 N           7.8694   18.9820    1.5176 N.3   315  UNL315     -0.3437
   1258 H           7.4657   18.2823    0.8964 H     315  UNL315      0.1146
   1259 H           8.8185   18.6681    1.7152 H     315  UNL315      0.1146
   1260 H           7.9644   19.8303    0.9610 H     315  UNL315      0.1146
   1261 N           7.8839   19.8964    3.5327 N.3   316  UNL316     -0.3437
   1262 H           7.3876   20.3555    4.2950 H     316  UNL316      0.1146
   1263 H           8.5080   20.5997    3.1400 H     316  UNL316      0.1146
   1264 H           8.4856   19.1992    3.9688 H     316  UNL316      0.1146
   1265 N           7.8839   19.8463    6.0162 N.3   317  UNL317     -0.3437
   1266 H           7.3876   20.4100    6.7048 H     317  UNL317      0.1146
   1267 H           8.5080   20.4860    5.5266 H     317  UNL317      0.1146
   1268 H           8.4856   19.2189    6.5479 H     317  UNL317      0.1146
   1269 N           7.8950   19.8648    8.4249 N.3   318  UNL318     -0.3437
   1270 H           7.3991   20.3387    9.1784 H     318  UNL318      0.1146
   1271 H           8.5175   20.5608    8.0169 H     318  UNL318      0.1146
   1272 H           8.4984   19.1776    8.8744 H     318  UNL318      0.1146
   1273 N           8.2049   20.5270   11.0748 N.3   319  UNL319     -0.3437
   1274 H           7.4947   20.6557   11.7942 H     319  UNL319      0.1146
   1275 H           9.0966   20.7418   11.5188 H     319  UNL319      0.1146
   1276 H           8.2243   19.5280   10.8748 H     319  UNL319      0.1146
   1277 N           7.9358   19.0579   13.7895 N.3   320  UNL320     -0.3437
   1278 H           7.4766   18.5421   13.0402 H     320  UNL320      0.1146
   1279 H           8.7882   18.5423   14.0041 H     320  UNL320      0.1146
   1280 H           8.2374   19.9405   13.3790 H     320  UNL320      0.1146
   1281 N           7.8215   19.8951   15.7280 N.3   321  UNL321     -0.3437
   1282 H           7.6212   20.5447   16.4871 H     321  UNL321      0.1146
   1283 H           8.4226   20.3996   15.0779 H     321  UNL321      0.1146
   1284 H           8.3998   19.1601   16.1325 H     321  UNL321      0.1146
   1285 N           7.8839   19.8804   18.3213 N.3   322  UNL322     -0.3437
   1286 H           7.3876   20.3395   19.0837 H     322  UNL322      0.1146
   1287 H           8.5080   20.5837   17.9286 H     322  UNL322      0.1146
   1288 H           8.4856   19.1832   18.7574 H     322  UNL322      0.1146
   1289 N           7.8247   19.9553   20.8735 N.3   323  UNL323     -0.3437
   1290 H           7.6244   20.2274   21.8348 H     323  UNL323      0.1146
   1291 H           8.4258   20.6856   20.4943 H     323  UNL323      0.1146
   1292 H           8.4030   19.1184   20.9331 H     323  UNL323      0.1146
   1293 N           8.2400   20.1650   24.7130 N.3   324  UNL324     -0.3437
   1294 H           8.6985   20.7381   24.0061 H     324  UNL324      0.1146
   1295 H           7.3711   20.6450   24.9434 H     324  UNL324      0.1146
   1296 H           7.9684   19.3028   24.2427 H     324  UNL324      0.1146
   1297 N          10.5908    0.3119    1.5125 N.3   325  UNL325     -0.3437
   1298 H          11.2805    0.8939    1.0392 H     325  UNL325      0.1146
   1299 H           9.9812    0.9534    2.0177 H     325  UNL325      0.1146
   1300 H          10.0180   -0.0993    0.7769 H     325  UNL325      0.1146
   1301 N          10.3372    0.7266    4.1529 N.3   326  UNL326     -0.3437
   1302 H          10.0390    0.0043    3.4989 H     326  UNL326      0.1146
   1303 H          11.2929    0.4903    4.4158 H     326  UNL326      0.1146
   1304 H          10.3997    1.5875    3.6112 H     326  UNL326      0.1146
   1305 N          10.2690    0.8552    6.4353 N.3   327  UNL327     -0.3437
   1306 H          10.5745    1.5705    5.7769 H     327  UNL327      0.1146
   1307 H           9.2507    0.8538    6.3959 H     327  UNL327      0.1146
   1308 H          10.5665   -0.0357    6.0402 H     327  UNL327      0.1146
   1309 N          10.4990    0.4116    8.7253 N.3   328  UNL328     -0.3437
   1310 H          10.6065    1.2730    8.1916 H     328  UNL328      0.1146
   1311 H           9.8322    0.6219    9.4667 H     328  UNL328      0.1146
   1312 H          10.0303   -0.2467    8.1046 H     328  UNL328      0.1146
   1313 N          10.3392    0.6846   11.2289 N.3   329  UNL329     -0.3437
   1314 H           9.9435   -0.0522   10.6467 H     329  UNL329      0.1146
   1315 H          10.9617    0.2184   11.8874 H     329  UNL329      0.1146
   1316 H          10.9397    1.2346   10.6163 H     329  UNL329      0.1146
   1317 N          10.2108    0.5635   13.7944 N.3   330  UNL330     -0.3437
   1318 H           9.8274   -0.0761   13.0999 H     330  UNL330      0.1146
   1319 H          10.8792    0.0196   14.3384 H     330  UNL330      0.1146
   1320 H          10.7610    1.2457   13.2745 H     330  UNL330      0.1146
   1321 N          10.3021    0.6693   16.2008 N.3   331  UNL331     -0.3437
   1322 H           9.7756    0.0460   15.5905 H     331  UNL331      0.1146
   1323 H          10.9703    0.0799   16.6953 H     331  UNL331      0.1146
   1324 H          10.8545    1.2646   15.5853 H     331  UNL331      0.1146
   1325 N          10.1556    0.5468   18.6232 N.3   332  UNL332     -0.3437
   1326 H           9.8370   -0.0338   17.8488 H     332  UNL332      0.1146
   1327 H          10.8203   -0.0220   19.1458 H     332  UNL332      0.1146
   1328 H          10.6991    1.3001   18.2043 H     332  UNL332      0.1146
   1329 N           8.3524    0.7022   21.1210 N.3   333  UNL333     -0.3437
   1330 H           8.1521    1.1094   22.0334 H     333  UNL333      0.1146
   1331 H           8.9535    1.3705   20.6410 H     333  UNL333      0.1146
   1332 H           8.9308   -0.1175   21.3001 H     333  UNL333      0.1146
   1333 N          10.3839   -0.7372   23.5416 N.3   334  UNL334     -0.3437
   1334 H           9.6711   -0.3098   22.9520 H     334  UNL334      0.1146
   1335 H          11.2763   -0.5409   23.0905 H     334  UNL334      0.1146
   1336 H          10.3856   -0.2051   24.4107 H     334  UNL334      0.1146
   1337 N          10.1780    3.1423    0.3396 N.3   335  UNL335     -0.3437
   1338 H           9.4985    3.3012   -0.4029 H     335  UNL335      0.1146
   1339 H          10.6488    2.2689    0.1074 H     335  UNL335      0.1146
   1340 H          10.8795    3.8746    0.2397 H     335  UNL335      0.1146
   1341 N          10.4977    3.0792    2.4568 N.3   336  UNL336     -0.3437
   1342 H          10.8012    2.2242    1.9928 H     336  UNL336      0.1146
   1343 H          11.0431    3.8331    2.0413 H     336  UNL336      0.1146
   1344 H           9.5349    3.2329    2.1608 H     336  UNL336      0.1146
   1345 N          10.2752    3.6433    4.9978 N.3   337  UNL337     -0.3437
   1346 H           9.6804    2.8250    4.8761 H     337  UNL337      0.1146
   1347 H          10.8305    3.4652    5.8335 H     337  UNL337      0.1146
   1348 H          10.9307    3.6326    4.2177 H     337  UNL337      0.1146
   1349 N          10.1926    3.4566    8.2783 N.3   338  UNL338     -0.3437
   1350 H          10.8541    4.0316    8.7980 H     338  UNL338      0.1146
   1351 H          10.6777    3.1676    7.4300 H     338  UNL338      0.1146
   1352 H          10.0628    2.6096    8.8298 H     338  UNL338      0.1146
   1353 N          10.1197    3.3394   11.1390 N.3   339  UNL339     -0.3437
   1354 H           9.4185    2.9149   10.5335 H     339  UNL339      0.1146
   1355 H          10.7155    2.5762   11.4567 H     339  UNL339      0.1146
   1356 H          10.7016    3.9164   10.5333 H     339  UNL339      0.1146
   1357 N          10.3311    3.3605   13.7164 N.3   340  UNL340     -0.3437
   1358 H           9.6809    2.7687   13.2013 H     340  UNL340      0.1146
   1359 H          10.8885    2.7308   14.2919 H     340  UNL340      0.1146
   1360 H          10.9700    3.7461   13.0224 H     340  UNL340      0.1146
   1361 N          10.2992    3.2532   16.2521 N.3   341  UNL341     -0.3437
   1362 H           9.7434    2.6422   15.6553 H     341  UNL341      0.1146
   1363 H          10.9679    2.6488   16.7274 H     341  UNL341      0.1146
   1364 H          10.8472    3.8379   15.6227 H     341  UNL341      0.1146
   1365 N           8.0220    3.2554   18.7531 N.3   342  UNL342     -0.3437
   1366 H           7.5803    2.6093   18.1006 H     342  UNL342      0.1146
   1367 H           8.7476    2.7214   19.2293 H     342  UNL342      0.1146
   1368 H           8.5095    3.9432   18.1808 H     342  UNL342      0.1146
   1369 N          10.2076    3.3908   20.8756 N.3   343  UNL343     -0.3437
   1370 H          10.2321    3.4593   21.8920 H     343  UNL343      0.1146
   1371 H          10.9726    3.9722   20.5364 H     343  UNL343      0.1146
   1372 H          10.4646    2.4303   20.6525 H     343  UNL343      0.1146
   1373 N          10.5519    1.8466   23.3465 N.3   344  UNL344     -0.3437
   1374 H           9.5849    1.8947   23.0288 H     344  UNL344      0.1146
   1375 H          10.9229    2.7918   23.2610 H     344  UNL344      0.1146
   1376 H          10.5099    1.6507   24.3456 H     344  UNL344      0.1146
   1377 N           9.9055    5.8125    1.1153 N.3   345  UNL345     -0.3437
   1378 H          10.0332    4.8569    1.4452 H     345  UNL345      0.1146
   1379 H           9.8104    6.3878    1.9509 H     345  UNL345      0.1146
   1380 H          10.7901    6.0826    0.6876 H     345  UNL345      0.1146
   1381 N          10.2472    5.8140    3.8860 N.3   346  UNL346     -0.3437
   1382 H          10.0285    5.1444    3.1497 H     346  UNL346      0.1146
   1383 H          11.1006    5.4760    4.3287 H     346  UNL346      0.1146
   1384 H          10.5006    6.6798    3.4121 H     346  UNL346      0.1146
   1385 N          10.2363    5.9563    6.2324 N.3   347  UNL347     -0.3437
   1386 H           9.8165    5.2880    5.5878 H     347  UNL347      0.1146
   1387 H          10.9380    5.4369    6.7580 H     347  UNL347      0.1146
   1388 H          10.7517    6.6185    5.6542 H     347  UNL347      0.1146
   1389 N          10.2499    5.8400    8.4364 N.3   348  UNL348     -0.3437
   1390 H          10.5128    5.5385    9.3736 H     348  UNL348      0.1146
   1391 H           9.2694    6.1117    8.4934 H     348  UNL348      0.1146
   1392 H          10.7695    6.6990    8.2616 H     348  UNL348      0.1146
   1393 N          10.2754    5.9645   11.2062 N.3   349  UNL349     -0.3437
   1394 H          10.7714    5.1890   11.6433 H     349  UNL349      0.1146
   1395 H           9.9817    6.5748   11.9676 H     349  UNL349      0.1146
   1396 H          10.9764    6.4866   10.6824 H     349  UNL349      0.1146
   1397 N          10.5146    5.5728   13.4810 N.3   350  UNL350     -0.3437
   1398 H          10.5291    5.1433   14.4049 H     350  UNL350      0.1146
   1399 H           9.5673    5.4465   13.1274 H     350  UNL350      0.1146
   1400 H          10.6258    6.5739   13.6348 H     350  UNL350      0.1146
   1401 N          10.2043    5.8802   16.1643 N.3   351  UNL351     -0.3437
   1402 H           9.7131    5.1736   15.6187 H     351  UNL351      0.1146
   1403 H          10.7747    5.3696   16.8368 H     351  UNL351      0.1146
   1404 H          10.8584    6.3260   15.5225 H     351  UNL351      0.1146
   1405 N          10.2077    5.9379   18.6683 N.3   352  UNL352     -0.3437
   1406 H           9.9124    5.1365   18.1125 H     352  UNL352      0.1146
   1407 H          10.9681    5.6050   19.2593 H     352  UNL352      0.1146
   1408 H          10.6286    6.5947   18.0126 H     352  UNL352      0.1146
   1409 N          10.4797    5.9377   20.9907 N.3   353  UNL353     -0.3437
   1410 H          10.7836    5.4810   21.8494 H     353  UNL353      0.1146
   1411 H           9.9540    5.2366   20.4705 H     353  UNL353      0.1146
   1412 H           9.8021    6.6444   21.2731 H     353  UNL353      0.1146
   1413 N          10.5093    4.1408   25.2037 N.3   354  UNL354     -0.3437
   1414 H          10.9649    4.5136   24.3720 H     354  UNL354      0.1146
   1415 H           9.5176    4.3502   25.0985 H     354  UNL354      0.1146
   1416 H          10.5907    3.1272   25.1381 H     354  UNL354      0.1146
   1417 N          10.1036    8.4214    1.0918 N.3   355  UNL355     -0.3437
   1418 H           9.6619    8.5840    1.9956 H     355  UNL355      0.1146
   1419 H          10.8292    9.1312    1.0020 H     355  UNL355      0.1146
   1420 H          10.5911    7.5303    1.1737 H     355  UNL355      0.1146
   1421 N          10.6214    8.7009    3.7772 N.3   356  UNL356     -0.3437
   1422 H           9.6510    8.4211    3.6417 H     356  UNL356      0.1146
   1423 H          11.0019    8.0654    4.4770 H     356  UNL356      0.1146
   1424 H          11.1017    8.4795    2.9062 H     356  UNL356      0.1146
   1425 N          10.1320    8.5197    6.3330 N.3   357  UNL357     -0.3437
   1426 H           9.7698    8.0659    5.4957 H     357  UNL357      0.1146
   1427 H          10.7120    7.8245    6.8007 H     357  UNL357      0.1146
   1428 H          10.7702    9.2439    6.0062 H     357  UNL357      0.1146
   1429 N          10.2624    8.6136    8.7641 N.3   358  UNL358     -0.3437
   1430 H           9.8667    7.8768    8.1820 H     358  UNL358      0.1146
   1431 H          10.8849    8.1474    9.4227 H     358  UNL358      0.1146
   1432 H          10.8629    9.1636    8.1515 H     358  UNL358      0.1146
   1433 N          10.1715    8.5986   11.2515 N.3   359  UNL359     -0.3437
   1434 H           9.8583    7.8815   10.5987 H     359  UNL359      0.1146
   1435 H          10.7513    8.1190   11.9387 H     359  UNL359      0.1146
   1436 H          10.8014    9.2021   10.7248 H     359  UNL359      0.1146
   1437 N          10.1520    8.5492   13.7763 N.3   360  UNL360     -0.3437
   1438 H           9.7783    7.8228   13.1671 H     360  UNL360      0.1146
   1439 H          10.7828    8.0769   14.4224 H     360  UNL360      0.1146
   1440 H          10.7412    9.1349   13.1862 H     360  UNL360      0.1146
   1441 N          10.2468    8.3804   15.8965 N.3   361  UNL361     -0.3437
   1442 H           9.7505    8.8395   16.6589 H     361  UNL361      0.1146
   1443 H          10.8709    9.0838   15.5038 H     361  UNL361      0.1146
   1444 H          10.8486    7.6832   16.3327 H     361  UNL361      0.1146
   1445 N          10.2500    8.5632   18.3658 N.3   362  UNL362     -0.3437
   1446 H           9.7537    9.2199   18.9664 H     362  UNL362      0.1146
   1447 H          10.8741    9.1261   17.7895 H     362  UNL362      0.1146
   1448 H          10.8518    8.0186   18.9820 H     362  UNL362      0.1146
   1449 N          10.2532    8.6263   20.8048 N.3   363  UNL363     -0.3437
   1450 H           9.7569    9.1901   21.4934 H     363  UNL363      0.1146
   1451 H          10.8773    9.2660   20.3153 H     363  UNL363      0.1146
   1452 H          10.8550    7.9989   21.3365 H     363  UNL363      0.1146
   1453 N          10.2543    6.3775   23.4839 N.3   364  UNL364     -0.3437
   1454 H           9.8516    6.9784   22.7662 H     364  UNL364      0.1146
   1455 H          11.2372    6.2670   23.2387 H     364  UNL364      0.1146
   1456 H          10.2393    6.9207   24.3459 H     364  UNL364      0.1146
   1457 N          10.2821   11.2637   -0.4677 N.3   365  UNL365     -0.3437
   1458 H          10.6387   10.9308    0.4270 H     365  UNL365      0.1146
   1459 H          11.1002   11.5247   -1.0165 H     365  UNL365      0.1146
   1460 H           9.8815   10.4493   -0.9309 H     365  UNL365      0.1146
   1461 N          10.6025   11.3532    2.3613 N.3   366  UNL366     -0.3437
   1462 H          10.1368   10.6115    1.8404 H     366  UNL366      0.1146
   1463 H          11.2750   11.7686    1.7181 H     366  UNL366      0.1146
   1464 H           9.8946   12.0672    2.5270 H     366  UNL366      0.1146
   1465 N          10.7051   10.9182    4.8414 N.3   367  UNL367     -0.3437
   1466 H          10.9518   11.8701    4.5743 H     367  UNL367      0.1146
   1467 H          10.0440   11.0050    5.6119 H     367  UNL367      0.1146
   1468 H          10.1760   10.5352    4.0592 H     367  UNL367      0.1146
   1469 N          10.2945   11.0814    8.6825 N.3   368  UNL368     -0.3437
   1470 H           9.8032   10.3978    8.1084 H     368  UNL368      0.1146
   1471 H          10.9708   10.5527    9.2317 H     368  UNL368      0.1146
   1472 H          10.8404   11.6501    8.0368 H     368  UNL368      0.1146
   1473 N          10.3264   11.0640   11.3256 N.3   369  UNL369     -0.3437
   1474 H           9.7706   10.5450   10.6473 H     369  UNL369      0.1146
   1475 H          10.9951   10.3977   11.7093 H     369  UNL369      0.1146
   1476 H          10.8744   11.7330   10.7867 H     369  UNL369      0.1146
   1477 N          10.2112   11.4550   13.6448 N.3   370  UNL370     -0.3437
   1478 H          10.0774   10.5143   13.2766 H     370  UNL370      0.1146
   1479 H          10.8828   11.3659   14.4059 H     370  UNL370      0.1146
   1480 H          10.6862   11.9789   12.9111 H     370  UNL370      0.1146
   1481 N          10.3096   10.9749   16.2963 N.3   371  UNL371     -0.3437
   1482 H           9.8766   10.3527   15.6154 H     371  UNL371      0.1146
   1483 H          11.2219   10.5716   16.5049 H     371  UNL371      0.1146
   1484 H          10.4943   11.8469   15.8025 H     371  UNL371      0.1146
   1485 N          10.2896   11.1838   18.6732 N.3   372  UNL372     -0.3437
   1486 H           9.7949   10.6429   17.9654 H     372  UNL372      0.1146
   1487 H          10.9004   10.5250   19.1541 H     372  UNL372      0.1146
   1488 H          10.9048   11.8167   18.1639 H     372  UNL372      0.1146
   1489 N          10.3289   11.2717   21.2125 N.3   373  UNL373     -0.3437
   1490 H           9.6944   10.7178   20.6389 H     373  UNL373      0.1146
   1491 H          10.9038   10.6023   21.7220 H     373  UNL373      0.1146
   1492 H          10.9562   11.7431   20.5623 H     373  UNL373      0.1146
   1493 N          10.3375    8.8250   23.4393 N.3   374  UNL374     -0.3437
   1494 H           9.4884    9.3840   23.5096 H     374  UNL374      0.1146
   1495 H          10.9106    9.2731   22.7257 H     374  UNL374      0.1146
   1496 H          10.8331    8.9551   24.3201 H     374  UNL374      0.1146
   1497 N          10.2551   13.7679    1.1506 N.3   375  UNL375     -0.3437
   1498 H           9.8797   12.9419    0.6867 H     375  UNL375      0.1146
   1499 H          10.9082   13.4232    1.8528 H     375  UNL375      0.1146
   1500 H          10.8210   14.2490    0.4530 H     375  UNL375      0.1146
   1501 N          10.2158   14.0883    3.8451 N.3   376  UNL376     -0.3437
   1502 H          10.1797   13.1116    3.5566 H     376  UNL376      0.1146
   1503 H          10.9836   14.1560    4.5117 H     376  UNL376      0.1146
   1504 H          10.5106   14.6133    3.0230 H     376  UNL376      0.1146
   1505 N          10.2524   13.6988    5.9795 N.3   377  UNL377     -0.3437
   1506 H           9.8107   13.7789    6.8943 H     377  UNL377      0.1146
   1507 H          10.9780   14.4139    5.9544 H     377  UNL377      0.1146
   1508 H          10.7399   12.8040    5.9803 H     377  UNL377      0.1146
   1509 N          10.2688   13.7427    8.6737 N.3   378  UNL378     -0.3437
   1510 H           9.8731   12.9300    8.2033 H     378  UNL378      0.1146
   1511 H          10.8913   13.3758    9.3923 H     378  UNL378      0.1146
   1512 H          10.8693   14.1991    7.9885 H     378  UNL378      0.1146
   1513 N          10.2959   13.8152   11.2838 N.3   379  UNL379     -0.3437
   1514 H           9.7844   13.3309   10.5475 H     379  UNL379      0.1146
   1515 H          10.8713   13.1075   11.7383 H     379  UNL379      0.1146
   1516 H          10.9444   14.4421   10.8097 H     379  UNL379      0.1146
   1517 N          10.2457   14.2594   13.4858 N.3   380  UNL380     -0.3437
   1518 H          10.0045   13.2713   13.4233 H     380  UNL380      0.1146
   1519 H          10.5751   14.4084   14.4385 H     380  UNL380      0.1146
   1520 H          11.0580   14.3888   12.8844 H     380  UNL380      0.1146
   1521 N          10.1132   13.7409   16.2055 N.3   381  UNL381     -0.3437
   1522 H           9.9297   13.2513   15.3308 H     381  UNL381      0.1146
   1523 H          10.7393   13.1389   16.7384 H     381  UNL381      0.1146
   1524 H          10.6594   14.5645   15.9572 H     381  UNL381      0.1146
   1525 N          10.2728   13.7287   18.6876 N.3   382  UNL382     -0.3437
   1526 H           9.7578   13.0431   18.1372 H     382  UNL382      0.1146
   1527 H          10.8509   13.1933   19.3338 H     382  UNL382      0.1146
   1528 H          10.9185   14.1801   18.0412 H     382  UNL382      0.1146
   1529 N           9.9646   13.8697   21.2170 N.3   383  UNL383     -0.3437
   1530 H           9.6981   13.0098   20.7398 H     383  UNL383      0.1146
   1531 H          10.6179   13.5939   21.9488 H     383  UNL383      0.1146
   1532 H          10.5081   14.4078   20.5436 H     383  UNL383      0.1146
   1533 N          10.0733   12.0752   23.5103 N.3   384  UNL384     -0.3437
   1534 H           9.6102   11.2614   23.1083 H     384  UNL384      0.1146
   1535 H          10.5372   11.7453   24.3556 H     384  UNL384      0.1146
   1536 H          10.8177   12.3243   22.8606 H     384  UNL384      0.1146
   1537 N          10.0857   16.4413    1.4871 N.3   385  UNL385     -0.3437
   1538 H           9.6606   15.7517    0.8689 H     385  UNL385      0.1146
   1539 H          10.8192   15.9489    1.9950 H     385  UNL385      0.1146
   1540 H          10.5626   17.1065    0.8800 H     385  UNL385      0.1146
   1541 N          10.2074   16.4492    3.9040 N.3   386  UNL386     -0.3437
   1542 H           9.6490   15.7995    3.3522 H     386  UNL386      0.1146
   1543 H          10.9607   15.8966    4.3110 H     386  UNL386      0.1146
   1544 H          10.6501   17.0775    3.2349 H     386  UNL386      0.1146
   1545 N          10.2368   16.4231    6.3103 N.3   387  UNL387     -0.3437
   1546 H           9.9694   15.7492    5.5942 H     387  UNL387      0.1146
   1547 H          10.8887   15.9368    6.9242 H     387  UNL387      0.1146
   1548 H          10.7820   17.1392    5.8325 H     387  UNL387      0.1146
   1549 N          10.2505   16.1334    8.8652 N.3   388  UNL388     -0.3437
   1550 H           9.7920   15.5522    8.1650 H     388  UNL388      0.1146
   1551 H          10.9819   15.5546    9.2755 H     388  UNL388      0.1146
   1552 H          10.7309   16.8689    8.3489 H     388  UNL388      0.1146
   1553 N          10.3546   16.4870   11.4361 N.3   389  UNL389     -0.3437
   1554 H           9.7085   15.7784   11.0914 H     389  UNL389      0.1146
   1555 H          11.1692   15.9808   11.7803 H     389  UNL389      0.1146
   1556 H          10.6701   17.0023   10.6156 H     389  UNL389      0.1146
   1557 N          10.3446   16.4884   13.8155 N.3   390  UNL390     -0.3437
   1558 H           9.6866   15.9855   13.2217 H     390  UNL390      0.1146
   1559 H          11.0182   15.7951   14.1382 H     390  UNL390      0.1146
   1560 H          10.8595   17.1138   13.1974 H     390  UNL390      0.1146
   1561 N          10.2366   16.8183   16.1275 N.3   391  UNL391     -0.3437
   1562 H           9.9701   15.9583   15.6502 H     391  UNL391      0.1146
   1563 H          10.8899   16.5425   16.8593 H     391  UNL391      0.1146
   1564 H          10.7802   17.3564   15.4541 H     391  UNL391      0.1146
   1565 N           8.1965   16.9821   18.7679 N.3   392  UNL392     -0.3437
   1566 H           7.9310   17.8368   19.2552 H     392  UNL392      0.1146
   1567 H           8.8514   17.2655   18.0405 H     392  UNL392      0.1146
   1568 H           8.7379   16.4348   19.4355 H     392  UNL392      0.1146
   1569 N          10.2263   16.7694   20.9094 N.3   393  UNL393     -0.3437
   1570 H          10.1519   16.9919   21.9010 H     393  UNL393      0.1146
   1571 H          10.7055   17.5593   20.4795 H     393  UNL393      0.1146
   1572 H          10.8700   15.9820   20.8458 H     393  UNL393      0.1146
   1573 N          10.4342   15.0259   23.6066 N.3   394  UNL394     -0.3437
   1574 H          10.2460   15.7120   24.3361 H     394  UNL394      0.1146
   1575 H           9.5719   14.9427   23.0701 H     394  UNL394      0.1146
   1576 H          11.1128   15.4591   22.9820 H     394  UNL394      0.1146
   1577 N          10.3773   20.6972    1.0869 N.3   395  UNL395     -0.3437
   1578 H           9.5712   20.6473    1.7083 H     395  UNL395      0.1146
   1579 H          11.1960   20.7420    1.6919 H     395  UNL395      0.1146
   1580 H          10.4251   19.7947    0.6160 H     395  UNL395      0.1146
   1581 N          10.2512   19.9872    3.5145 N.3   396  UNL396     -0.3437
   1582 H           9.7386   20.3341    4.3239 H     396  UNL396      0.1146
   1583 H          10.8822   20.7383    3.2386 H     396  UNL396      0.1146
   1584 H          10.8448   19.2343    3.8595 H     396  UNL396      0.1146
   1585 N          10.2429   19.8628    6.0198 N.3   397  UNL397     -0.3437
   1586 H           9.7617   20.4262    6.7193 H     397  UNL397      0.1146
   1587 H          10.8577   20.5024    5.5184 H     397  UNL397      0.1146
   1588 H          10.8545   19.2337    6.5381 H     397  UNL397      0.1146
   1589 N          10.2295   20.2780    8.4601 N.3   398  UNL398     -0.3437
   1590 H           9.9394   20.6733    9.3534 H     398  UNL398      0.1146
   1591 H          11.1046   20.7412    8.2189 H     398  UNL398      0.1146
   1592 H          10.4690   19.3055    8.6479 H     398  UNL398      0.1146
   1593 N          10.2248   18.9972   11.3407 N.3   399  UNL399     -0.3437
   1594 H           9.9402   18.5824   10.4546 H     399  UNL399      0.1146
   1595 H          11.0975   18.5383   11.5983 H     399  UNL399      0.1146
   1596 H          10.4672   19.9649   11.1329 H     399  UNL399      0.1146
   1597 N          10.5953   20.2891   13.7466 N.3   400  UNL400     -0.3437
   1598 H          10.8632   20.4625   12.7788 H     400  UNL400      0.1146
   1599 H           9.6908   20.7413   13.8729 H     400  UNL400      0.1146
   1600 H          10.4204   19.2875   13.8145 H     400  UNL400      0.1146
   1601 N          10.2080   19.9562   15.9311 N.3   401  UNL401     -0.3437
   1602 H           9.5473   20.3393   16.6056 H     401  UNL401      0.1146
   1603 H          10.7757   20.7419   15.6166 H     401  UNL401      0.1146
   1604 H          10.8338   19.3526   16.4625 H     401  UNL401      0.1146
   1605 N          10.2468   19.8527   18.3401 N.3   402  UNL402     -0.3437
   1606 H           9.7505   20.4164   19.0287 H     402  UNL402      0.1146
   1607 H          10.8709   20.4924   17.8505 H     402  UNL402      0.1146
   1608 H          10.8486   19.2253   18.8717 H     402  UNL402      0.1146
   1609 N          10.1844   20.0524   20.8355 N.3   403  UNL403     -0.3437
   1610 H          10.0083   20.3430   21.7962 H     403  UNL403      0.1146
   1611 H          10.8259   20.7420   20.4466 H     403  UNL403      0.1146
   1612 H          10.7111   19.1823   20.8973 H     403  UNL403      0.1146
   1613 N          10.3530   18.9107   23.7152 N.3   404  UNL404     -0.3437
   1614 H           9.6895   18.8714   22.9429 H     404  UNL404      0.1146
   1615 H          11.1183   18.2881   23.4599 H     404  UNL404      0.1146
   1616 H          10.7416   19.8526   23.7040 H     404  UNL404      0.1146
   1617 N          13.0149   -0.8616    1.0575 N.3   405  UNL405     -0.3437
   1618 H          13.0406   -1.5157    0.2766 H     405  UNL405      0.1146
   1619 H          12.2954   -0.1777    0.8275 H     405  UNL405      0.1146
   1620 H          12.6576   -1.3883    1.8534 H     405  UNL405      0.1146
   1621 N          12.5562   -0.6581    3.8615 N.3   406  UNL406     -0.3437
   1622 H          12.9067   -0.3253    2.9644 H     406  UNL406      0.1146
   1623 H          12.1964   -1.5963    3.6919 H     406  UNL406      0.1146
   1624 H          13.3748   -0.7748    4.4570 H     406  UNL406      0.1146
   1625 N          12.5829    0.3736    6.0941 N.3   407  UNL407     -0.3437
   1626 H          13.1469    0.5641    5.2671 H     407  UNL407      0.1146
   1627 H          13.1843   -0.1480    6.7302 H     407  UNL407      0.1146
   1628 H          12.4209    1.2765    6.5377 H     407  UNL407      0.1146
   1629 N          12.6569    0.3870    8.6984 N.3   408  UNL408     -0.3437
   1630 H          12.2152   -0.2929    8.0812 H     408  UNL408      0.1146
   1631 H          13.3825   -0.1209    9.2024 H     408  UNL408      0.1146
   1632 H          13.1444    1.0434    8.0903 H     408  UNL408      0.1146
   1633 N          12.6493    0.7001   11.2294 N.3   409  UNL409     -0.3437
   1634 H          12.2539   -0.0351   10.6450 H     409  UNL409      0.1146
   1635 H          13.2719    0.2323   11.8866 H     409  UNL409      0.1146
   1636 H          13.2495    1.2522   10.6184 H     409  UNL409      0.1146
   1637 N          12.6393    0.6702   13.7908 N.3   410  UNL410     -0.3437
   1638 H          12.1976    0.0859   13.0823 H     410  UNL410      0.1146
   1639 H          13.3649    0.0952   14.2166 H     410  UNL410      0.1146
   1640 H          13.1268    1.4070   13.2831 H     410  UNL410      0.1146
   1641 N          12.6334    0.6846   16.0816 N.3   411  UNL411     -0.3437
   1642 H          12.2376   -0.0522   15.4995 H     411  UNL411      0.1146
   1643 H          13.2558    0.2184   16.7402 H     411  UNL411      0.1146
   1644 H          13.2338    1.2346   15.4690 H     411  UNL411      0.1146
   1645 N          12.5420    0.4636   18.6898 N.3   412  UNL412     -0.3437
   1646 H          12.2237    0.7305   17.7594 H     412  UNL412      0.1146
   1647 H          13.3093   -0.1916   18.5470 H     412  UNL412      0.1146
   1648 H          12.9591    1.3005   19.0948 H     412  UNL412      0.1146
   1649 N          10.8925    0.5023   20.8143 N.3   413  UNL413     -0.3437
   1650 H          10.3799    0.8492   21.6237 H     413  UNL413      0.1146
   1651 H          11.5235    1.2534   20.5384 H     413  UNL413      0.1146
   1652 H          11.4862   -0.2506   21.1593 H     413  UNL413      0.1146
   1653 N          12.9246    0.3501   24.8935 N.3   414  UNL414     -0.3437
   1654 H          13.3594    1.2179   25.2036 H     414  UNL414      0.1146
   1655 H          11.9190    0.4979   24.9668 H     414  UNL414      0.1146
   1656 H          13.1256    0.2755   23.8973 H     414  UNL414      0.1146
   1657 N          12.6175    3.1095    0.1105 N.3   415  UNL415     -0.3437
   1658 H          12.0162    2.9466   -0.6959 H     415  UNL415      0.1146
   1659 H          13.4110    2.4795    0.0011 H     415  UNL415      0.1146
   1660 H          12.9894    4.0515   -0.0022 H     415  UNL415      0.1146
   1661 N          12.8959    1.6025    1.8307 N.3   416  UNL416     -0.3437
   1662 H          13.3126    2.5123    2.0229 H     416  UNL416      0.1146
   1663 H          13.6165    0.9134    2.0410 H     416  UNL416      0.1146
   1664 H          12.1693    1.4723    2.5332 H     416  UNL416      0.1146
   1665 N          12.9450    2.7151    5.4443 N.3   417  UNL417     -0.3437
   1666 H          13.1127    3.6735    5.1416 H     417  UNL417      0.1146
   1667 H          12.0727    2.7353    5.9706 H     417  UNL417      0.1146
   1668 H          12.7498    2.1831    4.5975 H     417  UNL417      0.1146
   1669 N          12.3418    3.0638    8.5674 N.3   418  UNL418     -0.3437
   1670 H          12.9730    2.3987    9.0118 H     418  UNL418      0.1146
   1671 H          12.3436    3.8923    9.1608 H     418  UNL418      0.1146
   1672 H          12.7933    3.3410    7.6970 H     418  UNL418      0.1146
   1673 N          12.6583    3.1217   11.2466 N.3   419  UNL419     -0.3437
   1674 H          13.3537    3.7581   10.8596 H     419  UNL419      0.1146
   1675 H          12.0223    3.6998   11.7940 H     419  UNL419      0.1146
   1676 H          12.1165    2.7817   10.4534 H     419  UNL419      0.1146
   1677 N          12.6742    3.2791   13.7235 N.3   420  UNL420     -0.3437
   1678 H          12.1591    2.6795   13.0803 H     420  UNL420      0.1146
   1679 H          13.2522    2.6564   14.2861 H     420  UNL420      0.1146
   1680 H          13.3198    3.8185   13.1485 H     420  UNL420      0.1146
   1681 N          12.7134    3.2803   16.2334 N.3   421  UNL421     -0.3437
   1682 H          12.2247    2.6614   15.5880 H     421  UNL421      0.1146
   1683 H          13.3350    2.6842   16.7780 H     421  UNL421      0.1146
   1684 H          13.3179    3.8652   15.6582 H     421  UNL421      0.1146
   1685 N          10.5378    3.3995   18.6367 N.3   422  UNL422     -0.3437
   1686 H           9.8434    2.9055   18.0780 H     422  UNL422      0.1146
   1687 H          11.1445    2.6814   19.0299 H     422  UNL422      0.1146
   1688 H          11.1116    3.9206   17.9752 H     422  UNL422      0.1146
   1689 N          12.5690    3.1458   20.8233 N.3   423  UNL423     -0.3437
   1690 H          12.0878    3.4898   21.6530 H     423  UNL423      0.1146
   1691 H          13.1838    3.9006   20.5220 H     423  UNL423      0.1146
   1692 H          13.1807    2.3964   21.1438 H     423  UNL423      0.1146
   1693 N          12.5696    3.0639   24.3747 N.3   424  UNL424     -0.3437
   1694 H          12.6314    3.9576   23.8891 H     424  UNL424      0.1146
   1695 H          12.7395    2.3485   23.6692 H     424  UNL424      0.1146
   1696 H          13.3689    3.0313   25.0058 H     424  UNL424      0.1146
   1697 N          12.7577    5.9581    1.4457 N.3   425  UNL425     -0.3437
   1698 H          12.2311    5.2934    0.8806 H     425  UNL425      0.1146
   1699 H          13.4204    5.4041    1.9863 H     425  UNL425      0.1146
   1700 H          13.3161    6.5033    0.7905 H     425  UNL425      0.1146
   1701 N          12.6031    4.1370    3.1225 N.3   426  UNL426     -0.3437
   1702 H          12.5317    4.4727    4.0819 H     426  UNL426      0.1146
   1703 H          13.5884    4.2089    2.8724 H     426  UNL426      0.1146
   1704 H          12.3942    3.1403    3.1573 H     426  UNL426      0.1146
   1705 N          12.6912    5.8912    6.3432 N.3   427  UNL427     -0.3437
   1706 H          12.4600    5.4492    5.4546 H     427  UNL427      0.1146
   1707 H          13.2149    5.1970    6.8744 H     427  UNL427      0.1146
   1708 H          13.3529    6.6344    6.1234 H     427  UNL427      0.1146
   1709 N          12.5858    6.0457    8.7470 N.3   428  UNL428     -0.3437
   1710 H          12.2182    5.3085    8.1472 H     428  UNL428      0.1146
   1711 H          13.1623    5.5783    9.4453 H     428  UNL428      0.1146
   1712 H          13.2278    6.5849    8.1680 H     428  UNL428      0.1146
   1713 N          12.6621    5.7280   11.3124 N.3   429  UNL429     -0.3437
   1714 H          12.1323    5.1520   10.6599 H     429  UNL429      0.1146
   1715 H          13.3036    5.0954   11.7886 H     429  UNL429      0.1146
   1716 H          13.2433    6.3388   10.7401 H     429  UNL429      0.1146
   1717 N          12.5890    5.7757   13.7064 N.3   430  UNL430     -0.3437
   1718 H          12.2731    5.0729   13.0395 H     430  UNL430      0.1146
   1719 H          13.2719    5.3103   14.3026 H     430  UNL430      0.1146
   1720 H          13.1112    6.4625   13.1644 H     430  UNL430      0.1146
   1721 N          12.6126    5.8588   16.0963 N.3   431  UNL431     -0.3437
   1722 H          12.1074    5.2088   15.4959 H     431  UNL431      0.1146
   1723 H          13.1774    5.2839   16.7200 H     431  UNL431      0.1146
   1724 H          13.2712    6.3466   15.4908 H     431  UNL431      0.1146
   1725 N          12.5535    6.0635   18.6183 N.3   432  UNL432     -0.3437
   1726 H          12.1301    5.3279   18.0542 H     432  UNL432      0.1146
   1727 H          13.0370    5.5901   19.3801 H     432  UNL432      0.1146
   1728 H          13.2815    6.4783   18.0383 H     432  UNL432      0.1146
   1729 N          12.5756    6.0080   21.3130 N.3   433  UNL433     -0.3437
   1730 H          12.3090    5.1480   20.8358 H     433  UNL433      0.1146
   1731 H          13.2288    5.7322   22.0448 H     433  UNL433      0.1146
   1732 H          13.1191    6.5460   20.6396 H     433  UNL433      0.1146
   1733 N          12.7210    6.0792   24.8597 N.3   434  UNL434     -0.3437
   1734 H          12.7437    6.0166   23.8428 H     434  UNL434      0.1146
   1735 H          11.7400    6.1903   25.1123 H     434  UNL434      0.1146
   1736 H          12.9974    5.1608   25.2039 H     434  UNL434      0.1146
   1737 N          12.6048    8.6269    1.5832 N.3   435  UNL435     -0.3437
   1738 H          12.3563    7.7399    1.1475 H     435  UNL435      0.1146
   1739 H          13.3356    8.4122    2.2601 H     435  UNL435      0.1146
   1740 H          13.0511    9.1823    0.8547 H     435  UNL435      0.1146
   1741 N          12.5236    7.1151    3.5676 N.3   436  UNL436     -0.3437
   1742 H          12.4735    6.6626    4.4793 H     436  UNL436      0.1146
   1743 H          12.6376    8.1104    3.7540 H     436  UNL436      0.1146
   1744 H          13.3994    6.8059    3.1484 H     436  UNL436      0.1146
   1745 N          12.5934    9.0871    5.9819 N.3   437  UNL437     -0.3437
   1746 H          12.3769    8.1483    6.3139 H     437  UNL437      0.1146
   1747 H          13.2139    9.4956    6.6795 H     437  UNL437      0.1146
   1748 H          13.1571    8.9650    5.1419 H     437  UNL437      0.1146
   1749 N          12.6664    8.6073    8.8219 N.3   438  UNL438     -0.3437
   1750 H          12.1410    8.0547    8.1459 H     438  UNL438      0.1146
   1751 H          13.1712    7.9373    9.4005 H     438  UNL438      0.1146
   1752 H          13.3755    9.1061    8.2863 H     438  UNL438      0.1146
   1753 N          12.5016    8.2485   11.3307 N.3   439  UNL439     -0.3437
   1754 H          11.9431    7.7823   10.6171 H     439  UNL439      0.1146
   1755 H          13.2548    7.6031   11.5640 H     439  UNL439      0.1146
   1756 H          12.9442    9.0410   10.8676 H     439  UNL439      0.1146
   1757 N          12.5956    8.6371   13.4352 N.3   440  UNL440     -0.3437
   1758 H          12.2184    7.7165   13.6559 H     440  UNL440      0.1146
   1759 H          12.9809    8.9990   14.3064 H     440  UNL440      0.1146
   1760 H          13.3928    8.4743   12.8217 H     440  UNL440      0.1146
   1761 N          12.6470    8.4057   15.8635 N.3   441  UNL441     -0.3437
   1762 H          12.0251    8.7684   16.5846 H     441  UNL441      0.1146
   1763 H          13.3119    9.1519   15.6646 H     441  UNL441      0.1146
   1764 H          13.1845    7.6609   16.3048 H     441  UNL441      0.1146
   1765 N          12.6058    8.3083   18.4318 N.3   442  UNL442     -0.3437
   1766 H          12.1246    9.0472   18.9424 H     442  UNL442      0.1146
   1767 H          13.2207    8.7791   17.7694 H     442  UNL442      0.1146
   1768 H          13.2174    7.8523   19.1074 H     442  UNL442      0.1146
   1769 N          12.6162    8.6199   20.8080 N.3   443  UNL443     -0.3437
   1770 H          12.1198    9.1837   21.4966 H     443  UNL443      0.1146
   1771 H          13.2402    9.2597   20.3185 H     443  UNL443      0.1146
   1772 H          13.2179    7.9925   21.3397 H     443  UNL443      0.1146
   1773 N          12.8658    8.2493   23.3887 N.3   444  UNL444     -0.3437
   1774 H          12.5472    8.2047   24.3556 H     444  UNL444      0.1146
   1775 H          12.2446    7.6387   22.8598 H     444  UNL444      0.1146
   1776 H          12.6660    9.1966   23.0706 H     444  UNL444      0.1146
   1777 N          12.6485   11.4126    0.2863 N.3   445  UNL445     -0.3437
   1778 H          12.3556   10.5786   -0.2207 H     445  UNL445      0.1146
   1779 H          13.4252   11.1228    0.8790 H     445  UNL445      0.1146
   1780 H          13.0465   12.0400   -0.4112 H     445  UNL445      0.1146
   1781 N          12.5673   11.1243    3.4538 N.3   446  UNL446     -0.3437
   1782 H          12.9003   10.1656    3.5451 H     446  UNL446      0.1146
   1783 H          13.2971   11.7142    3.8510 H     446  UNL446      0.1146
   1784 H          12.5575   11.3243    2.4546 H     446  UNL446      0.1146
   1785 N          12.4895   11.5641    6.2303 N.3   447  UNL447     -0.3437
   1786 H          12.2237   12.3644    5.6582 H     447  UNL447      0.1146
   1787 H          11.6340   11.0324    6.3842 H     447  UNL447      0.1146
   1788 H          13.0804   10.9805    5.6398 H     447  UNL447      0.1146
   1789 N          13.0184   11.1075    8.5948 N.3   448  UNL448     -0.3437
   1790 H          13.3821   10.4773    9.3083 H     448  UNL448      0.1146
   1791 H          12.1940   10.6492    8.2092 H     448  UNL448      0.1146
   1792 H          12.6764   11.9281    9.0928 H     448  UNL448      0.1146
   1793 N          12.6284   11.1753   11.2337 N.3   449  UNL449     -0.3437
   1794 H          12.3058   10.6116   10.4485 H     449  UNL449      0.1146
   1795 H          13.1633   10.5458   11.8304 H     449  UNL449      0.1146
   1796 H          13.3015   11.8357   10.8476 H     449  UNL449      0.1146
   1797 N          12.6622   11.1805   13.7872 N.3   450  UNL450     -0.3437
   1798 H          11.9941   10.7213   13.1698 H     450  UNL450      0.1146
   1799 H          13.3149   10.4561   14.0832 H     450  UNL450      0.1146
   1800 H          13.1973   11.8169   13.1982 H     450  UNL450      0.1146
   1801 N          12.9757   11.0151   15.8840 N.3   451  UNL451     -0.3437
   1802 H          13.0704   10.6219   16.8193 H     451  UNL451      0.1146
   1803 H          12.3633   10.3806   15.3733 H     451  UNL451      0.1146
   1804 H          12.4519   11.8820   15.9954 H     451  UNL451      0.1146
   1805 N          12.7113   11.2230   18.6410 N.3   452  UNL452     -0.3437
   1806 H          12.1858   10.6705   17.9650 H     452  UNL452      0.1146
   1807 H          13.2160   10.5531   19.2196 H     452  UNL452      0.1146
   1808 H          13.4203   11.7218   18.1054 H     452  UNL452      0.1146
   1809 N          12.6829   11.1733   21.2704 N.3   453  UNL453     -0.3437
   1810 H          12.1700   10.5273   20.6721 H     453  UNL453      0.1146
   1811 H          13.5496   10.6985   21.5187 H     453  UNL453      0.1146
   1812 H          12.9516   11.9550   20.6744 H     453  UNL453      0.1146
   1813 N          12.5544   11.0197   24.7214 N.3   454  UNL454     -0.3437
   1814 H          12.6379   11.2227   23.7263 H     454  UNL454      0.1146
   1815 H          13.0966   10.1720   24.8816 H     454  UNL454      0.1146
   1816 H          13.0524   11.7669   25.2031 H     454  UNL454      0.1146
   1817 N          12.6383   13.8327    1.3779 N.3   455  UNL455     -0.3437
   1818 H          12.2325   13.3165    0.5986 H     455  UNL455      0.1146
   1819 H          13.1039   13.1394    1.9619 H     455  UNL455      0.1146
   1820 H          13.3794   14.4070    0.9789 H     455  UNL455      0.1146
   1821 N          12.6278   13.8728    3.8350 N.3   456  UNL456     -0.3437
   1822 H          12.1127   13.1871    3.2846 H     456  UNL456      0.1146
   1823 H          13.2058   13.3373    4.4812 H     456  UNL456      0.1146
   1824 H          13.2734   14.3241    3.1886 H     456  UNL456      0.1146
   1825 N          12.6478   14.1659    6.3481 N.3   457  UNL457     -0.3437
   1826 H          12.1591   13.7557    5.5535 H     457  UNL457      0.1146
   1827 H          13.2694   13.4396    6.7009 H     457  UNL457      0.1146
   1828 H          13.2523   14.8900    5.9627 H     457  UNL457      0.1146
   1829 N          12.6561   13.9499    8.7616 N.3   458  UNL458     -0.3437
   1830 H          12.1614   13.2594    8.1987 H     458  UNL458      0.1146
   1831 H          13.2283   13.4199    9.4174 H     458  UNL458      0.1146
   1832 H          13.3084   14.4121    8.1298 H     458  UNL458      0.1146
   1833 N          12.6722   13.7822   11.3133 N.3   459  UNL459     -0.3437
   1834 H          12.1109   13.2313   10.6654 H     459  UNL459      0.1146
   1835 H          13.4270   13.1707   11.6211 H     459  UNL459      0.1146
   1836 H          13.1121   14.5115   10.7539 H     459  UNL459      0.1146
   1837 N          12.5660   13.8147   13.6847 N.3   460  UNL460     -0.3437
   1838 H          12.2994   13.0322   13.0889 H     460  UNL460      0.1146
   1839 H          13.2192   13.4368   14.3693 H     460  UNL460      0.1146
   1840 H          13.1095   14.4439   13.0955 H     460  UNL460      0.1146
   1841 N          12.4697   13.8851   16.1627 N.3   461  UNL461     -0.3437
   1842 H          12.0280   13.3008   15.4543 H     461  UNL461      0.1146
   1843 H          13.1953   13.3102   16.5886 H     461  UNL461      0.1146
   1844 H          12.9572   14.6220   15.6551 H     461  UNL461      0.1146
   1845 N          12.6612   13.7083   18.6498 N.3   462  UNL462     -0.3437
   1846 H          12.1468   13.0570   18.0586 H     462  UNL462      0.1146
   1847 H          13.2409   13.1351   19.2611 H     462  UNL462      0.1146
   1848 H          13.3053   14.1999   18.0319 H     462  UNL462      0.1146
   1849 N          12.4139   13.9726   21.2860 N.3   463  UNL463     -0.3437
   1850 H          11.9683   13.1556   20.8708 H     463  UNL463      0.1146
   1851 H          12.8851   13.6392   22.1257 H     463  UNL463      0.1146
   1852 H          13.1524   14.2482   20.6403 H     463  UNL463      0.1146
   1853 N          12.5292   13.7496   24.4843 N.3   464  UNL464     -0.3437
   1854 H          12.9524   14.4953   23.9337 H     464  UNL464      0.1146
   1855 H          12.4768   12.9401   23.8674 H     464  UNL464      0.1146
   1856 H          13.2102   13.5106   25.2037 H     464  UNL464      0.1146
   1857 N          12.6012   16.3488    1.3786 N.3   465  UNL465     -0.3437
   1858 H          12.3346   15.6598    0.6767 H     465  UNL465      0.1146
   1859 H          13.2545   15.8765    2.0019 H     465  UNL465      0.1146
   1860 H          13.1447   17.0560    0.8857 H     465  UNL465      0.1146
   1861 N          12.6478   16.4806    3.8904 N.3   466  UNL466     -0.3437
   1862 H          12.1591   15.9606    3.1629 H     466  UNL466      0.1146
   1863 H          13.2694   15.8124    4.3438 H     466  UNL466      0.1146
   1864 H          13.2523   17.1419    3.4051 H     466  UNL466      0.1146
   1865 N          12.5994   16.9452    6.2841 N.3   467  UNL467     -0.3437
   1866 H          12.3306   16.2480    5.5914 H     467  UNL467      0.1146
   1867 H          13.1799   16.4563    6.9641 H     467  UNL467      0.1146
   1868 H          13.2186   17.5956    5.8024 H     467  UNL467      0.1146
   1869 N          12.6769   16.5014    8.8334 N.3   468  UNL468     -0.3437
   1870 H          12.1003   16.0084    8.1531 H     468  UNL468      0.1146
   1871 H          13.2942   15.7996    9.2394 H     468  UNL468      0.1146
   1872 H          13.2764   17.1246    8.2943 H     468  UNL468      0.1146
   1873 N          12.6393   16.9249   11.2528 N.3   469  UNL469     -0.3437
   1874 H          12.1976   16.2450   10.6356 H     469  UNL469      0.1146
   1875 H          13.3649   16.4170   11.7567 H     469  UNL469      0.1146
   1876 H          13.1268   17.5813   10.6446 H     469  UNL469      0.1146
   1877 N          12.6798   16.4374   13.7430 N.3   470  UNL470     -0.3437
   1878 H          12.1911   15.9174   13.0156 H     470  UNL470      0.1146
   1879 H          13.3014   15.7692   14.1965 H     470  UNL470      0.1146
   1880 H          13.2843   17.0987   13.2577 H     470  UNL470      0.1146
   1881 N          12.6538   16.5471   16.2644 N.3   471  UNL471     -0.3437
   1882 H          12.0529   16.0425   15.6143 H     471  UNL471      0.1146
   1883 H          13.2602   15.8463   16.6882 H     471  UNL471      0.1146
   1884 H          13.2593   17.1324   15.6906 H     471  UNL471      0.1146
   1885 N          10.4836   16.4931   18.6827 N.3   472  UNL472     -0.3437
   1886 H          10.3266   15.7069   18.0538 H     472  UNL472      0.1146
   1887 H          11.1277   16.1569   19.3973 H     472  UNL472      0.1146
   1888 H          11.0002   17.1859   18.1428 H     472  UNL472      0.1146
   1889 N          12.5935   16.7323   20.8678 N.3   473  UNL473     -0.3437
   1890 H          12.3793   16.8340   21.8588 H     473  UNL473      0.1146
   1891 H          13.1300   17.5595   20.6101 H     473  UNL473      0.1146
   1892 H          13.2385   15.9465   20.7990 H     473  UNL473      0.1146
   1893 N          12.4576   16.3393   24.4121 N.3   474  UNL474     -0.3437
   1894 H          12.8244   15.7613   25.1669 H     474  UNL474      0.1146
   1895 H          12.7995   17.2828   24.5892 H     474  UNL474      0.1146
   1896 H          12.9271   16.0250   23.5641 H     474  UNL474      0.1146
   1897 N          12.9003   19.0700   -1.4166 N.3   475  UNL475     -0.3437
   1898 H          13.4226   18.6511   -0.6485 H     475  UNL475      0.1146
   1899 H          11.9991   18.5946   -1.4356 H     475  UNL475      0.1146
   1900 H          12.7057   20.0294   -1.1338 H     475  UNL475      0.1146
   1901 N          12.5862   19.0004    1.4911 N.3   476  UNL476     -0.3437
   1902 H          12.1041   18.5123    0.7376 H     476  UNL476      0.1146
   1903 H          13.5255   18.6067    1.5250 H     476  UNL476      0.1146
   1904 H          12.6967   19.9633    1.1765 H     476  UNL476      0.1146
   1905 N          12.6098   19.8820    3.5327 N.3   477  UNL477     -0.3437
   1906 H          12.1134   20.3411    4.2950 H     477  UNL477      0.1146
   1907 H          13.2338   20.5853    3.1400 H     477  UNL477      0.1146
   1908 H          13.2115   19.1848    3.9688 H     477  UNL477      0.1146
   1909 N          12.5715   20.0919    6.0367 N.3   478  UNL478     -0.3437
   1910 H          12.2644   20.7415    6.7592 H     478  UNL478      0.1146
   1911 H          13.2597   20.5964    5.4796 H     478  UNL478      0.1146
   1912 H          13.0858   19.3569    6.5200 H     478  UNL478      0.1146
   1913 N          12.6413   19.2414    8.3904 N.3   479  UNL479     -0.3437
   1914 H          12.0683   19.3106    9.2302 H     479  UNL479      0.1146
   1915 H          13.0285   20.1714    8.2370 H     479  UNL479      0.1146
   1916 H          13.4304   18.6458    8.6371 H     479  UNL479      0.1146
   1917 N          12.7449   20.3333   10.8929 N.3   480  UNL480     -0.3437
   1918 H          11.9897   20.7426   11.4412 H     480  UNL480      0.1146
   1919 H          13.6078   20.5791   11.3758 H     480  UNL480      0.1146
   1920 H          12.6468   19.3237   10.9895 H     480  UNL480      0.1146
   1921 N          12.6020   19.1427   13.7837 N.3   481  UNL481     -0.3437
   1922 H          12.1620   18.5007   13.1260 H     481  UNL481      0.1146
   1923 H          13.3259   18.6056   14.2589 H     481  UNL481      0.1146
   1924 H          13.0915   19.8337   13.2169 H     481  UNL481      0.1146
   1925 N          12.5683   20.0920   15.7390 N.3   482  UNL482     -0.3437
   1926 H          12.2612   20.7416   16.4615 H     482  UNL482      0.1146
   1927 H          13.2565   20.5964   15.1819 H     482  UNL482      0.1146
   1928 H          13.0826   19.3569   16.2223 H     482  UNL482      0.1146
   1929 N          12.6098   19.8463   18.3433 N.3   483  UNL483     -0.3437
   1930 H          12.1134   20.4100   19.0319 H     483  UNL483      0.1146
   1931 H          13.2338   20.4860   17.8537 H     483  UNL483      0.1146
   1932 H          13.2115   19.2189   18.8749 H     483  UNL483      0.1146
   1933 N          12.5241   19.9805   20.9110 N.3   484  UNL484     -0.3437
   1934 H          12.4864   20.2313   21.8979 H     484  UNL484      0.1146
   1935 H          13.1087   20.6855   20.4641 H     484  UNL484      0.1146
   1936 H          13.0493   19.1086   20.8626 H     484  UNL484      0.1146
   1937 N          13.0273   20.2742   24.6595 N.3   485  UNL485     -0.3437
   1938 H          13.1932   20.7061   23.7516 H     485  UNL485      0.1146
   1939 H          12.2080   20.7403   25.0468 H     485  UNL485      0.1146
   1940 H          12.7400   19.3158   24.4664 H     485  UNL485      0.1146
   1941 N          14.9910   -1.0929    1.0824 N.3   486  UNL486     -0.3437
   1942 H          14.6212   -1.7967    1.7198 H     486  UNL486      0.1146
   1943 H          15.5537   -0.4643    1.6540 H     486  UNL486      0.1146
   1944 H          15.6463   -1.5814    0.4740 H     486  UNL486      0.1146
   1945 N          14.6345    0.5141    3.4184 N.3   487  UNL487     -0.3437
   1946 H          15.2557   -0.0332    4.0125 H     487  UNL487      0.1146
   1947 H          13.9468    0.9337    4.0423 H     487  UNL487      0.1146
   1948 H          15.1960    1.2853    3.0601 H     487  UNL487      0.1146
   1949 N          14.9811    0.0016    6.0680 N.3   488  UNL488     -0.3437
   1950 H          15.6657   -0.5419    6.5917 H     488  UNL488      0.1146
   1951 H          14.5594    0.6430    6.7382 H     488  UNL488      0.1146
   1952 H          15.5165    0.5812    5.4232 H     488  UNL488      0.1146
   1953 N          14.9351    0.7806    8.5270 N.3   489  UNL489     -0.3437
   1954 H          15.4317   -0.1092    8.5320 H     489  UNL489      0.1146
   1955 H          14.8766    1.0751    9.5008 H     489  UNL489      0.1146
   1956 H          15.5561    1.4462    8.0692 H     489  UNL489      0.1146
   1957 N          14.9555   -0.0363   11.3271 N.3   490  UNL490     -0.3437
   1958 H          15.8861   -0.0596   11.7415 H     490  UNL490      0.1146
   1959 H          14.7185    0.9495   11.2242 H     490  UNL490      0.1146
   1960 H          15.0601   -0.4002   10.3810 H     490  UNL490      0.1146
   1961 N          15.0239    0.5930   13.7337 N.3   491  UNL491     -0.3437
   1962 H          14.4867   -0.0117   13.1139 H     491  UNL491      0.1146
   1963 H          15.6647   -0.0189   14.2370 H     491  UNL491      0.1146
   1964 H          15.6049    1.1710   13.1282 H     491  UNL491      0.1146
   1965 N          15.0179    0.6690   16.0836 N.3   492  UNL492     -0.3437
   1966 H          14.5029   -0.0167   15.5332 H     492  UNL492      0.1146
   1967 H          15.5959    0.1335   16.7298 H     492  UNL492      0.1146
   1968 H          15.6635    1.1203   15.4372 H     492  UNL492      0.1146
   1969 N          14.9048    0.6662   18.7229 N.3   493  UNL493     -0.3437
   1970 H          14.5248    0.9996   17.8382 H     493  UNL493      0.1146
   1971 H          15.5328   -0.1010   18.4875 H     493  UNL493      0.1146
   1972 H          15.4978    1.4166   19.0745 H     493  UNL493      0.1146
   1973 N          13.3054    0.4342   20.8352 N.3   494  UNL494     -0.3437
   1974 H          12.8095    0.9082   21.5887 H     494  UNL494      0.1146
   1975 H          13.9278    1.1303   20.4271 H     494  UNL494      0.1146
   1976 H          13.9088   -0.2529   21.2847 H     494  UNL494      0.1146
   1977 N          15.1938   -0.7344   23.5158 N.3   495  UNL495     -0.3437
   1978 H          14.9327   -0.2428   24.3693 H     495  UNL495      0.1146
   1979 H          14.4532   -1.4132   23.3449 H     495  UNL495      0.1146
   1980 H          15.1252   -0.0490   22.7648 H     495  UNL495      0.1146
   1981 N          15.0891    1.9681    0.7903 N.3   496  UNL496     -0.3437
   1982 H          15.4977    1.8953    1.7210 H     496  UNL496      0.1146
   1983 H          15.8657    1.8867    0.1355 H     496  UNL496      0.1146
   1984 H          14.5262    1.1281    0.6642 H     496  UNL496      0.1146
   1985 N          14.8740    3.0334    3.8041 N.3   497  UNL497     -0.3437
   1986 H          15.0016    2.8160    2.8168 H     497  UNL497      0.1146
   1987 H          15.4297    2.3498    4.3163 H     497  UNL497      0.1146
   1988 H          15.3277    3.9334    3.9545 H     497  UNL497      0.1146
   1989 N          14.8550    3.2070    6.3546 N.3   498  UNL498     -0.3437
   1990 H          14.0213    3.6853    6.6930 H     498  UNL498      0.1146
   1991 H          14.5708    2.2469    6.1656 H     498  UNL498      0.1146
   1992 H          15.0675    3.6206    5.4479 H     498  UNL498      0.1146
   1993 N          14.9970    3.4451    8.7339 N.3   499  UNL499     -0.3437
   1994 H          14.2231    3.0031    8.2399 H     499  UNL499      0.1146
   1995 H          15.3959    2.7241    9.3335 H     499  UNL499      0.1146
   1996 H          15.7035    3.6452    8.0273 H     499  UNL499      0.1146
   1997 N          15.1086    2.9962   11.3398 N.3   500  UNL500     -0.3437
   1998 H          14.4189    2.6066   10.6988 H     500  UNL500      0.1146
   1999 H          15.7740    2.2471   11.5256 H     500  UNL500      0.1146
   2000 H          15.6195    3.7002   10.8088 H     500  UNL500      0.1146
   2001 N          15.0067    3.2167   13.7235 N.3   501  UNL501     -0.3437
   2002 H          14.4917    2.6171   13.0803 H     501  UNL501      0.1146
   2003 H          15.5847    2.5940   14.2861 H     501  UNL501      0.1146
   2004 H          15.6523    3.7561   13.1485 H     501  UNL501      0.1146
   2005 N          15.0171    3.1984   16.3022 N.3   502  UNL502     -0.3437
   2006 H          14.5284    2.6785   15.5747 H     502  UNL502      0.1146
   2007 H          15.6387    2.5303   16.7556 H     502  UNL502      0.1146
   2008 H          15.6216    3.8598   15.8169 H     502  UNL502      0.1146
   2009 N          12.9003    3.3304   18.6610 N.3   503  UNL503     -0.3437
   2010 H          12.5266    2.6040   18.0519 H     503  UNL503      0.1146
   2011 H          13.5311    2.8581   19.3071 H     503  UNL503      0.1146
   2012 H          13.4895    3.9161   18.0710 H     503  UNL503      0.1146
   2013 N          14.9417    3.2807   20.8340 N.3   504  UNL504     -0.3437
   2014 H          14.3846    3.6638   21.5964 H     504  UNL504      0.1146
   2015 H          15.4583    4.0663   20.4414 H     504  UNL504      0.1146
   2016 H          15.6372    2.6770   21.2702 H     504  UNL504      0.1146
   2017 N          14.8837    2.3060   23.4578 N.3   505  UNL505     -0.3437
   2018 H          14.9408    2.0101   24.4312 H     505  UNL505      0.1146
   2019 H          14.9028    3.3248   23.4723 H     505  UNL505      0.1146
   2020 H          15.7585    2.0149   23.0239 H     505  UNL505      0.1146
   2021 N          15.1533    4.3584    1.1720 N.3   506  UNL506     -0.3437
   2022 H          14.8092    5.3079    1.0358 H     506  UNL506      0.1146
   2023 H          15.7145    4.3823    2.0223 H     506  UNL506      0.1146
   2024 H          14.3352    3.7919    1.3913 H     506  UNL506      0.1146
   2025 N          15.0252    5.9976    3.5946 N.3   507  UNL507     -0.3437
   2026 H          14.4944    5.1545    3.8085 H     507  UNL507      0.1146
   2027 H          15.5140    6.2472    4.4532 H     507  UNL507      0.1146
   2028 H          15.7467    5.7149    2.9328 H     507  UNL507      0.1146
   2029 N          14.9875    5.9264    6.3394 N.3   508  UNL508     -0.3437
   2030 H          14.6252    5.4725    5.5020 H     508  UNL508      0.1146
   2031 H          15.5675    5.2312    6.8071 H     508  UNL508      0.1146
   2032 H          15.6256    6.6505    6.0126 H     508  UNL508      0.1146
   2033 N          15.0435    5.9620    8.7971 N.3   509  UNL509     -0.3437
   2034 H          14.3617    5.4801    8.2129 H     509  UNL509      0.1146
   2035 H          15.6115    5.2326    9.2258 H     509  UNL509      0.1146
   2036 H          15.6611    6.4587    8.1565 H     509  UNL509      0.1146
   2037 N          15.0490    5.8225   11.2724 N.3   510  UNL510     -0.3437
   2038 H          14.5799    5.1934   10.6223 H     510  UNL510      0.1146
   2039 H          15.6806    5.2403   11.8204 H     510  UNL510      0.1146
   2040 H          15.6435    6.4228   10.7027 H     510  UNL510      0.1146
   2041 N          14.9560    5.9481   13.7302 N.3   511  UNL511     -0.3437
   2042 H          14.4195    5.4629   13.0125 H     511  UNL511      0.1146
   2043 H          15.4521    5.2239   14.2477 H     511  UNL511      0.1146
   2044 H          15.6710    6.4793   13.2353 H     511  UNL511      0.1146
   2045 N          14.8923    5.9482   16.1520 N.3   512  UNL512     -0.3437
   2046 H          14.4965    5.2114   15.5699 H     512  UNL512      0.1146
   2047 H          15.5147    5.4820   16.8106 H     512  UNL512      0.1146
   2048 H          15.4927    6.4982   15.5394 H     512  UNL512      0.1146
   2049 N          14.9775    5.8539   18.6804 N.3   513  UNL513     -0.3437
   2050 H          15.6491    6.3576   18.1028 H     513  UNL513      0.1146
   2051 H          14.3909    6.5653   19.1143 H     513  UNL513      0.1146
   2052 H          14.3739    5.3485   18.0334 H     513  UNL513      0.1146
   2053 N          14.8563    5.9469   20.8607 N.3   514  UNL514     -0.3437
   2054 H          15.3409    5.2613   21.4381 H     514  UNL514      0.1146
   2055 H          14.4857    6.6446   21.5044 H     514  UNL514      0.1146
   2056 H          15.5789    6.4196   20.3197 H     514  UNL514      0.1146
   2057 N          15.0224    5.9292   24.7451 N.3   515  UNL515     -0.3437
   2058 H          15.1418    5.7885   23.7430 H     515  UNL515      0.1146
   2059 H          15.3516    5.0735   25.1900 H     515  UNL515      0.1146
   2060 H          15.6869    6.6557   25.0079 H     515  UNL515      0.1146
   2061 N          14.9928    8.3490    1.4859 N.3   516  UNL516     -0.3437
   2062 H          14.7962    7.6742    0.7480 H     516  UNL516      0.1146
   2063 H          15.9810    8.2404    1.7098 H     516  UNL516      0.1146
   2064 H          14.9015    9.2688    1.0569 H     516  UNL516      0.1146
   2065 N          15.0016    8.3806    3.5380 N.3   517  UNL517     -0.3437
   2066 H          14.5586    7.9907    4.3688 H     517  UNL517      0.1146
   2067 H          15.5099    9.2061    3.8520 H     517  UNL517      0.1146
   2068 H          15.7102    7.7054    3.2545 H     517  UNL517      0.1146
   2069 N          15.0601    8.9459    5.9671 N.3   518  UNL518     -0.3437
   2070 H          14.4048    8.2058    6.2144 H     518  UNL518      0.1146
   2071 H          15.6234    9.1122    6.7998 H     518  UNL518      0.1146
   2072 H          15.6919    8.5425    5.2767 H     518  UNL518      0.1146
   2073 N          15.0165    8.3223    8.8451 N.3   519  UNL519     -0.3437
   2074 H          14.7555    7.9217    7.9453 H     519  UNL519      0.1146
   2075 H          15.7889    7.7550    9.1917 H     519  UNL519      0.1146
   2076 H          15.4113    9.2391    8.6405 H     519  UNL519      0.1146
   2077 N          14.9464    8.5984   11.2518 N.3   520  UNL520     -0.3437
   2078 H          14.4533    7.9566   10.6326 H     520  UNL520      0.1146
   2079 H          15.6423    8.0375   11.7412 H     520  UNL520      0.1146
   2080 H          15.4694    9.2280   10.6449 H     520  UNL520      0.1146
   2081 N          14.9147    8.6130   13.8051 N.3   521  UNL521     -0.3437
   2082 H          14.5891    7.7670   13.3397 H     521  UNL521      0.1146
   2083 H          15.7499    8.3446   14.3236 H     521  UNL521      0.1146
   2084 H          15.2322    9.2366   13.0644 H     521  UNL521      0.1146
   2085 N          14.9689    8.4450   15.9029 N.3   522  UNL522     -0.3437
   2086 H          14.4118    8.8282   16.6653 H     522  UNL522      0.1146
   2087 H          15.4856    9.2307   15.5102 H     522  UNL522      0.1146
   2088 H          15.6644    7.8414   16.3391 H     522  UNL522      0.1146
   2089 N          15.0005    8.3093   18.3985 N.3   523  UNL523     -0.3437
   2090 H          14.5330    9.0496   18.9198 H     523  UNL523      0.1146
   2091 H          15.6039    8.7784   17.7245 H     523  UNL523      0.1146
   2092 H          15.6236    7.8496   19.0609 H     523  UNL523      0.1146
   2093 N          14.9611    8.6574   20.7860 N.3   524  UNL524     -0.3437
   2094 H          14.5358    9.1830   21.5484 H     524  UNL524      0.1146
   2095 H          15.6796    9.2639   20.3934 H     524  UNL524      0.1146
   2096 H          15.4565    7.8811   21.2222 H     524  UNL524      0.1146
   2097 N          15.1535    8.3927   23.3432 N.3   525  UNL525     -0.3437
   2098 H          14.9728    8.4886   24.3415 H     525  UNL525      0.1146
   2099 H          15.6085    9.2580   23.0557 H     525  UNL525      0.1146
   2100 H          15.8582    7.6620   23.2543 H     525  UNL525      0.1146
   2101 N          15.2708   10.9036   -0.8633 N.3   526  UNL526     -0.3437
   2102 H          14.2566   10.9995   -0.8837 H     526  UNL526      0.1146
   2103 H          15.6405   11.8487   -0.7710 H     526  UNL526      0.1146
   2104 H          15.4907   10.4294    0.0114 H     526  UNL526      0.1146
   2105 N          14.8067   11.2319    2.2947 N.3   527  UNL527     -0.3437
   2106 H          14.9952   11.5540    1.3465 H     527  UNL527      0.1146
   2107 H          14.1262   10.4787    2.2053 H     527  UNL527      0.1146
   2108 H          15.6681   10.7950    2.6195 H     527  UNL527      0.1146
   2109 N          14.9482   11.2740    4.7300 N.3   528  UNL528     -0.3437
   2110 H          14.4318   10.5409    4.2460 H     528  UNL528      0.1146
   2111 H          15.7450   10.8138    5.1681 H     528  UNL528      0.1146
   2112 H          15.3353   11.8725    4.0018 H     528  UNL528      0.1146
   2113 N          14.7539   11.1371    6.7996 N.3   529  UNL529     -0.3437
   2114 H          14.0594   11.6197    7.3681 H     529  UNL529      0.1146
   2115 H          15.4854   11.8207    6.6097 H     529  UNL529      0.1146
   2116 H          15.1757   10.4359    7.4068 H     529  UNL529      0.1146
   2117 N          15.3247   11.6771    9.4496 N.3   530  UNL530     -0.3437
   2118 H          15.3140   11.6768    8.4306 H     530  UNL530      0.1146
   2119 H          14.5608   12.2866    9.7383 H     530  UNL530      0.1146
   2120 H          15.0558   10.7362    9.7336 H     530  UNL530      0.1146
   2121 N          15.0331   11.3665   11.4845 N.3   531  UNL531     -0.3437
   2122 H          14.3862   11.8823   12.0794 H     531  UNL531      0.1146
   2123 H          15.8238   11.9889   11.3236 H     531  UNL531      0.1146
   2124 H          15.3899   10.6012   12.0549 H     531  UNL531      0.1146
   2125 N          15.1224   11.0761   14.3615 N.3   532  UNL532     -0.3437
   2126 H          15.8315   10.3789   14.5840 H     532  UNL532      0.1146
   2127 H          15.6271   11.9435   14.1847 H     532  UNL532      0.1146
   2128 H          14.7240   10.7956   13.4665 H     532  UNL532      0.1146
   2129 N          14.8974   11.5940   16.7385 N.3   533  UNL533     -0.3437
   2130 H          15.4294   11.5767   17.6075 H     533  UNL533      0.1146
   2131 H          15.4906   12.0629   16.0554 H     533  UNL533      0.1146
   2132 H          14.8284   10.6246   16.4321 H     533  UNL533      0.1146
   2133 N          14.9458   11.2745   20.0648 N.3   534  UNL534     -0.3437
   2134 H          15.1697   10.6160   20.8096 H     534  UNL534      0.1146
   2135 H          15.7508   11.8944   19.9866 H     534  UNL534      0.1146
   2136 H          14.9267   10.7292   19.2042 H     534  UNL534      0.1146
   2137 N          14.9786   11.0382   24.4056 N.3   535  UNL535     -0.3437
   2138 H          14.9644   11.0400   23.3867 H     535  UNL535      0.1146
   2139 H          15.5480   10.2380   24.6771 H     535  UNL535      0.1146
   2140 H          15.5069   11.8650   24.6806 H     535  UNL535      0.1146
   2141 N          15.1939   13.7217    1.4920 N.3   536  UNL536     -0.3437
   2142 H          14.6558   13.1096    0.8803 H     536  UNL536      0.1146
   2143 H          16.1181   13.2995    1.5694 H     536  UNL536      0.1146
   2144 H          15.3245   14.5904    0.9756 H     536  UNL536      0.1146
   2145 N          14.9883   13.9843    3.8346 N.3   537  UNL537     -0.3437
   2146 H          14.5925   13.2476    3.2524 H     537  UNL537      0.1146
   2147 H          15.6107   13.5182    4.4931 H     537  UNL537      0.1146
   2148 H          15.5887   14.5344    3.2219 H     537  UNL537      0.1146
   2149 N          15.0022   13.8211    6.3053 N.3   538  UNL538     -0.3437
   2150 H          14.5605   13.2368    5.5968 H     538  UNL538      0.1146
   2151 H          15.7278   13.2462    6.7311 H     538  UNL538      0.1146
   2152 H          15.4897   14.5580    5.7976 H     538  UNL538      0.1146
   2153 N          14.9661   13.9345    8.6809 N.3   539  UNL539     -0.3437
   2154 H          14.6788   13.1752    8.0651 H     539  UNL539      0.1146
   2155 H          15.5287   13.5043    9.4136 H     539  UNL539      0.1146
   2156 H          15.6067   14.5105    8.1367 H     539  UNL539      0.1146
   2157 N          15.0572   14.3515   11.2953 N.3   540  UNL540     -0.3437
   2158 H          14.4922   13.8922   10.5825 H     540  UNL540      0.1146
   2159 H          15.6662   13.6302   11.6790 H     540  UNL540      0.1146
   2160 H          15.6671   14.9980   10.7969 H     540  UNL540      0.1146
   2161 N          14.9114   13.7275   13.6282 N.3   541  UNL541     -0.3437
   2162 H          15.0327   12.9809   12.9454 H     541  UNL541      0.1146
   2163 H          15.4736   13.4634   14.4360 H     541  UNL541      0.1146
   2164 H          15.3625   14.5494   13.2288 H     541  UNL541      0.1146
   2165 N          14.9727   13.8406   16.1744 N.3   542  UNL542     -0.3437
   2166 H          14.6569   13.1379   15.5075 H     542  UNL542      0.1146
   2167 H          15.6556   13.3752   16.7705 H     542  UNL542      0.1146
   2168 H          15.4950   14.5275   15.6323 H     542  UNL542      0.1146
   2169 N          15.0220   13.9131   18.7976 N.3   543  UNL543     -0.3437
   2170 H          14.7464   13.1223   18.2171 H     543  UNL543      0.1146
   2171 H          15.6833   13.5441   19.4794 H     543  UNL543      0.1146
   2172 H          15.5590   14.5323   18.1922 H     543  UNL543      0.1146
   2173 N          14.8356   13.6989   21.5318 N.3   544  UNL544     -0.3437
   2174 H          15.2267   12.7919   21.2815 H     544  UNL544      0.1146
   2175 H          15.4637   14.0924   22.2311 H     544  UNL544      0.1146
   2176 H          14.9342   14.2853   20.7042 H     544  UNL544      0.1146
   2177 N          15.2424   13.9404   23.9808 N.3   545  UNL545     -0.3437
   2178 H          15.9443   13.2623   23.6876 H     545  UNL545      0.1146
   2179 H          14.3401   13.5326   23.7402 H     545  UNL545      0.1146
   2180 H          15.2791   13.9603   24.9989 H     545  UNL545      0.1146
   2181 N          14.9207   17.4909    1.4124 N.3   546  UNL546     -0.3437
   2182 H          15.1766   16.5046    1.4038 H     546  UNL546      0.1146
   2183 H          15.6289   17.9599    1.9753 H     546  UNL546      0.1146
   2184 H          15.0540   17.8240    0.4587 H     546  UNL546      0.1146
   2185 N          15.0107   16.4774    3.8904 N.3   547  UNL547     -0.3437
   2186 H          14.5220   15.9574    3.1629 H     547  UNL547      0.1146
   2187 H          15.6323   15.8092    4.3438 H     547  UNL547      0.1146
   2188 H          15.6152   17.1387    3.4051 H     547  UNL547      0.1146
   2189 N          14.9464   16.6921    6.3175 N.3   548  UNL548     -0.3437
   2190 H          14.5922   16.0018    5.6570 H     548  UNL548      0.1146
   2191 H          15.6156   16.1992    6.9071 H     548  UNL548      0.1146
   2192 H          15.4916   17.3539    5.7668 H     548  UNL548      0.1146
   2193 N          14.9962   16.4382    8.7976 N.3   549  UNL549     -0.3437
   2194 H          14.5692   15.8086    8.1197 H     549  UNL549      0.1146
   2195 H          15.6651   15.8753    9.3212 H     549  UNL549      0.1146
   2196 H          15.5497   17.1006    8.2561 H     549  UNL549      0.1146
   2197 N          15.0140   16.8469   11.2779 N.3   550  UNL550     -0.3437
   2198 H          15.5580   17.4843   10.6982 H     550  UNL550      0.1146
   2199 H          14.5229   16.2299   10.6324 H     550  UNL550      0.1146
   2200 H          15.6917   16.2619   11.7645 H     550  UNL550      0.1146
   2201 N          14.9686   16.4513   13.7908 N.3   551  UNL551     -0.3437
   2202 H          14.5269   15.8670   13.0823 H     551  UNL551      0.1146
   2203 H          15.6942   15.8763   14.2166 H     551  UNL551      0.1146
   2204 H          15.4561   17.1882   13.2831 H     551  UNL551      0.1146
   2205 N          15.0183   16.5195   16.1921 N.3   552  UNL552     -0.3437
   2206 H          14.5016   15.9337   15.5378 H     552  UNL552      0.1146
   2207 H          15.5970   15.8850   16.7406 H     552  UNL552      0.1146
   2208 H          15.6633   17.0702   15.6271 H     552  UNL552      0.1146
   2209 N          12.8591   16.5342   18.7233 N.3   553  UNL553     -0.3437
   2210 H          12.3065   15.9550   18.0928 H     553  UNL553      0.1146
   2211 H          13.5232   15.9054   19.1728 H     553  UNL553      0.1146
   2212 H          13.4129   17.1482   18.1277 H     553  UNL553      0.1146
   2213 N          14.9539   16.8477   20.8400 N.3   554  UNL554     -0.3437
   2214 H          14.5620   17.1771   21.7211 H     554  UNL554      0.1146
   2215 H          15.5405   17.6052   20.4929 H     554  UNL554      0.1146
   2216 H          15.5894   16.0887   21.0817 H     554  UNL554      0.1146
   2217 N          14.8730   16.3988   24.4016 N.3   555  UNL555     -0.3437
   2218 H          15.0116   15.6531   25.0820 H     555  UNL555      0.1146
   2219 H          15.3321   17.2218   24.7894 H     555  UNL555      0.1146
   2220 H          15.4163   16.1347   23.5809 H     555  UNL555      0.1146
   2221 N          15.1424   20.3233   -1.3487 N.3   556  UNL556     -0.3437
   2222 H          14.2814   20.7140   -0.9687 H     556  UNL556      0.1146
   2223 H          15.9012   20.7412   -0.8121 H     556  UNL556      0.1146
   2224 H          15.1352   19.3347   -1.1018 H     556  UNL556      0.1146
   2225 N          15.0794   20.6972    1.0910 N.3   557  UNL557     -0.3437
   2226 H          14.3708   20.6473    1.8217 H     557  UNL557      0.1146
   2227 H          15.9765   20.7420    1.5722 H     557  UNL557      0.1146
   2228 H          15.0592   19.7947    0.6181 H     557  UNL557      0.1146
   2229 N          14.9770   19.9184    3.5145 N.3   558  UNL558     -0.3437
   2230 H          14.4644   20.2653    4.3239 H     558  UNL558      0.1146
   2231 H          15.6080   20.6695    3.2386 H     558  UNL558      0.1146
   2232 H          15.5707   19.1655    3.8595 H     558  UNL558      0.1146
   2233 N          14.9687   19.6788    6.0198 N.3   559  UNL559     -0.3437
   2234 H          14.4875   20.2422    6.7193 H     559  UNL559      0.1146
   2235 H          15.5836   20.3183    5.5184 H     559  UNL559      0.1146
   2236 H          15.5803   19.0497    6.5381 H     559  UNL559      0.1146
   2237 N          14.9266   20.1050    8.4873 N.3   560  UNL560     -0.3437
   2238 H          14.6854   20.3303    9.4513 H     560  UNL560      0.1146
   2239 H          15.6795   20.7417    8.2300 H     560  UNL560      0.1146
   2240 H          15.3416   19.1747    8.5117 H     560  UNL560      0.1146
   2241 N          15.0051   19.2217   11.2921 N.3   561  UNL561     -0.3437
   2242 H          14.3981   18.6392   10.7172 H     561  UNL561      0.1146
   2243 H          15.5491   18.5794   11.8664 H     561  UNL561      0.1146
   2244 H          15.6679   19.6552   10.6509 H     561  UNL561      0.1146
   2245 N          15.2917   20.1657   13.8302 N.3   562  UNL562     -0.3437
   2246 H          15.7544   20.5264   12.9970 H     562  UNL562      0.1146
   2247 H          14.4620   20.7422   13.9625 H     562  UNL562      0.1146
   2248 H          14.9521   19.2373   13.5831 H     562  UNL562      0.1146
   2249 N          14.9770   19.9200   15.8383 N.3   563  UNL563     -0.3437
   2250 H          14.4644   20.2669   16.6478 H     563  UNL563      0.1146
   2251 H          15.6080   20.6711   15.5624 H     563  UNL563      0.1146
   2252 H          15.5707   19.1671   16.1833 H     563  UNL563      0.1146
   2253 N          14.9687   19.7764   18.3436 N.3   564  UNL564     -0.3437
   2254 H          14.4875   20.3398   19.0432 H     564  UNL564      0.1146
   2255 H          15.5836   20.4159   17.8423 H     564  UNL564      0.1146
   2256 H          15.5803   19.1473   18.8619 H     564  UNL564      0.1146
   2257 N          14.9102   20.1147   20.8411 N.3   565  UNL565     -0.3437
   2258 H          14.7341   20.5402   21.7501 H     565  UNL565      0.1146
   2259 H          15.5518   20.7414   20.3572 H     565  UNL565      0.1146
   2260 H          15.4370   19.2625   21.0272 H     565  UNL565      0.1146
   2261 N          15.2821   19.2316   23.3691 N.3   566  UNL566     -0.3437
   2262 H          15.8058   18.4134   23.0615 H     566  UNL566      0.1146
   2263 H          14.3364   19.1114   23.0090 H     566  UNL566      0.1146
   2264 H          15.2087   19.1535   24.3824 H     566  UNL566      0.1146
   2265 N          17.3293   -1.1181    1.1480 N.3   567  UNL567     -0.3437
   2266 H          17.0304   -1.8207    1.8229 H     567  UNL567      0.1146
   2267 H          17.9463   -0.4856    1.6556 H     567  UNL567      0.1146
   2268 H          17.9195   -1.6070    0.4764 H     567  UNL567      0.1146
   2269 N          17.0935    0.5089    3.9574 N.3   568  UNL568     -0.3437
   2270 H          16.7359    0.6654    3.0162 H     568  UNL568      0.1146
   2271 H          17.7385   -0.2768    3.8859 H     568  UNL568      0.1146
   2272 H          17.6656    1.3224    4.1794 H     568  UNL568      0.1146
   2273 N          17.4931    0.3553    6.0990 N.3   569  UNL569     -0.3437
   2274 H          18.1122   -0.1749    6.7104 H     569  UNL569      0.1146
   2275 H          17.0200   -0.3320    5.5139 H     569  UNL569      0.1146
   2276 H          16.7746    0.7523    6.7027 H     569  UNL569      0.1146
   2277 N          17.5169    0.4296    8.4627 N.3   570  UNL570     -0.3437
   2278 H          17.8752   -0.0917    9.2616 H     570  UNL570      0.1146
   2279 H          16.9205   -0.2179    7.9494 H     570  UNL570      0.1146
   2280 H          16.8952    1.1398    8.8466 H     570  UNL570      0.1146
   2281 N          17.5017    0.8031   11.1953 N.3   571  UNL571     -0.3437
   2282 H          17.0141    0.0401   10.7280 H     571  UNL571      0.1146
   2283 H          18.0724    0.3698   11.9199 H     571  UNL571      0.1146
   2284 H          18.1557    1.1796   10.5105 H     571  UNL571      0.1146
   2285 N          17.4118    0.4920   13.8010 N.3   572  UNL572     -0.3437
   2286 H          16.9089   -0.0633   13.1103 H     572  UNL572      0.1146
   2287 H          18.2531   -0.0364   14.0277 H     572  UNL572      0.1146
   2288 H          17.7286    1.3282   13.3123 H     572  UNL572      0.1146
   2289 N          17.3808    0.7220   16.0818 N.3   573  UNL573     -0.3437
   2290 H          16.8658   -0.0356   15.6355 H     573  UNL573      0.1146
   2291 H          17.9589    0.2848   16.7981 H     573  UNL573      0.1146
   2292 H          18.0265    1.0759   15.3773 H     573  UNL573      0.1146
   2293 N          17.2640    0.6879   18.7679 N.3   574  UNL574     -0.3437
   2294 H          16.9017    0.3589   17.8741 H     574  UNL574      0.1146
   2295 H          17.8440   -0.0672   19.1309 H     574  UNL574      0.1146
   2296 H          17.9021    1.4514   18.5484 H     574  UNL574      0.1146
   2297 N          15.7499    0.5814   20.8078 N.3   575  UNL575     -0.3437
   2298 H          15.1510    1.0554   21.4824 H     575  UNL575      0.1146
   2299 H          16.4245    1.2775   20.4934 H     575  UNL575      0.1146
   2300 H          16.2826   -0.1057   21.3393 H     575  UNL575      0.1146
   2301 N          17.2830    0.2787   24.4134 N.3   576  UNL576     -0.3437
   2302 H          16.9068    1.1296   23.9976 H     576  UNL576      0.1146
   2303 H          17.6285   -0.2841   23.6374 H     576  UNL576      0.1146
   2304 H          18.1064    0.5645   24.9415 H     576  UNL576      0.1146
   2305 N          17.3626    1.4321    1.4622 N.3   577  UNL577     -0.3437
   2306 H          16.9304    0.6174    1.0288 H     577  UNL577      0.1146
   2307 H          18.1077    1.0719    2.0568 H     577  UNL577      0.1146
   2308 H          17.8248    1.9391    0.7088 H     577  UNL577      0.1146
   2309 N          17.1859    3.0291    3.5924 N.3   578  UNL578     -0.3437
   2310 H          16.7402    3.7585    3.0376 H     578  UNL578      0.1146
   2311 H          17.6349    2.4035    2.9250 H     578  UNL578      0.1146
   2312 H          17.9414    3.4855    4.1015 H     578  UNL578      0.1146
   2313 N          16.9334    3.4425    5.7274 N.3   579  UNL579     -0.3437
   2314 H          16.8945    2.4246    5.7556 H     579  UNL579      0.1146
   2315 H          16.6615    3.7599    6.6568 H     579  UNL579      0.1146
   2316 H          17.9183    3.6832    5.6254 H     579  UNL579      0.1146
   2317 N          17.3769    3.0650    8.5265 N.3   580  UNL580     -0.3437
   2318 H          17.9913    2.5035    9.1145 H     580  UNL580      0.1146
   2319 H          16.9327    3.7394    9.1480 H     580  UNL580      0.1146
   2320 H          17.9887    3.6056    7.9168 H     580  UNL580      0.1146
   2321 N          17.5148    3.4771   11.1149 N.3   581  UNL581     -0.3437
   2322 H          17.2160    2.6106   10.6697 H     581  UNL581      0.1146
   2323 H          17.8906    3.2107   12.0239 H     581  UNL581      0.1146
   2324 H          18.3081    3.8134   10.5708 H     581  UNL581      0.1146
   2325 N          17.3104    3.3185   13.8895 N.3   582  UNL582     -0.3437
   2326 H          16.9481    2.7492   13.1259 H     582  UNL582      0.1146
   2327 H          17.8904    2.6976   14.4521 H     582  UNL582      0.1146
   2328 H          17.9485    3.9882   13.4622 H     582  UNL582      0.1146
   2329 N          17.4083    3.3372   16.2325 N.3   583  UNL583     -0.3437
   2330 H          16.7998    2.8075   15.6100 H     583  UNL583      0.1146
   2331 H          18.0662    2.6637   16.6223 H     583  UNL583      0.1146
   2332 H          17.9575    3.9514   15.6328 H     583  UNL583      0.1146
   2333 N          15.3485    3.4894   18.6635 N.3   584  UNL584     -0.3437
   2334 H          14.8061    2.7548   18.2111 H     584  UNL584      0.1146
   2335 H          16.0005    3.0143   19.2860 H     584  UNL584      0.1146
   2336 H          15.9168    3.9109   17.9303 H     584  UNL584      0.1146
   2337 N          17.3491    3.2102   20.9547 N.3   585  UNL585     -0.3437
   2338 H          16.9649    3.5660   21.8289 H     585  UNL585      0.1146
   2339 H          17.9101    3.9669   20.5659 H     585  UNL585      0.1146
   2340 H          18.0077    2.4775   21.2149 H     585  UNL585      0.1146
   2341 N          17.2848    3.1170   24.6712 N.3   586  UNL586     -0.3437
   2342 H          17.8275    2.4385   25.2037 H     586  UNL586      0.1146
   2343 H          17.8120    3.9883   24.7066 H     586  UNL586      0.1146
   2344 H          17.3205    2.8063   23.7014 H     586  UNL586      0.1146
   2345 N          17.6875    3.9867    1.3779 N.3   587  UNL587     -0.3437
   2346 H          17.0255    3.3246    0.9757 H     587  UNL587      0.1146
   2347 H          18.2978    3.4404    1.9841 H     587  UNL587      0.1146
   2348 H          18.2708    4.3049    0.6053 H     587  UNL587      0.1146
   2349 N          17.3606    5.8274    3.4897 N.3   588  UNL588     -0.3437
   2350 H          16.7829    5.7381    4.3244 H     588  UNL588      0.1146
   2351 H          18.0229    6.5767    3.6855 H     588  UNL588      0.1146
   2352 H          17.9119    4.9720    3.4369 H     588  UNL588      0.1146
   2353 N          17.7041    5.5675    6.3226 N.3   589  UNL589     -0.3437
   2354 H          17.1433    6.2206    5.7773 H     589  UNL589      0.1146
   2355 H          18.4266    5.2231    5.6919 H     589  UNL589      0.1146
   2356 H          18.1869    6.1286    7.0229 H     589  UNL589      0.1146
   2357 N          17.3839    5.9373    8.8711 N.3   590  UNL590     -0.3437
   2358 H          16.8647    5.3980    8.1798 H     590  UNL590      0.1146
   2359 H          18.0879    5.3052    9.2496 H     590  UNL590      0.1146
   2360 H          17.8954    6.6464    8.3479 H     590  UNL590      0.1146
   2361 N          17.3904    5.7065   11.3041 N.3   591  UNL591     -0.3437
   2362 H          16.9935    5.1968   10.5160 H     591  UNL591      0.1146
   2363 H          18.1930    5.1613   11.6157 H     591  UNL591      0.1146
   2364 H          17.7702    6.5696   10.9179 H     591  UNL591      0.1146
   2365 N          17.4315    6.0015   13.7345 N.3   592  UNL592     -0.3437
   2366 H          16.7604    5.3398   13.3470 H     592  UNL592      0.1146
   2367 H          18.0534    5.4552   14.3289 H     592  UNL592      0.1146
   2368 H          17.9993    6.3177   12.9496 H     592  UNL592      0.1146
   2369 N          17.2326    5.9852   16.2483 N.3   593  UNL593     -0.3437
   2370 H          16.7541    5.2124   15.7877 H     593  UNL593      0.1146
   2371 H          18.0464    5.5782   16.7072 H     593  UNL593      0.1146
   2372 H          17.5971    6.5750   15.5015 H     593  UNL593      0.1146
   2373 N          17.3086    6.0245   18.6908 N.3   594  UNL594     -0.3437
   2374 H          16.7942    5.2951   18.1992 H     594  UNL594      0.1146
   2375 H          17.8884    5.5450   19.3780 H     594  UNL594      0.1146
   2376 H          17.9527    6.4224   18.0087 H     594  UNL594      0.1146
   2377 N          17.3609    5.9675   21.3840 N.3   595  UNL595     -0.3437
   2378 H          17.7930    5.4073   22.1174 H     595  UNL595      0.1146
   2379 H          16.7812    5.3257   20.8450 H     595  UNL595      0.1146
   2380 H          16.7159    6.5993   21.8563 H     595  UNL595      0.1146
   2381 N          17.5775    6.0787   24.3025 N.3   596  UNL596     -0.3437
   2382 H          18.4803    5.6144   24.2150 H     596  UNL596      0.1146
   2383 H          16.9756    5.6581   23.5960 H     596  UNL596      0.1146
   2384 H          17.1986    5.7885   25.2029 H     596  UNL596      0.1146
   2385 N          16.9711    6.4236    1.4309 N.3   597  UNL597     -0.3437
   2386 H          16.6092    7.0056    0.6767 H     597  UNL597      0.1146
   2387 H          17.6081    5.7599    0.9925 H     597  UNL597      0.1146
   2388 H          17.5523    7.0346    2.0029 H     597  UNL597      0.1146
   2389 N          17.2743    8.5368    3.8400 N.3   598  UNL598     -0.3437
   2390 H          17.1392    8.1266    2.9171 H     598  UNL598      0.1146
   2391 H          17.6176    7.7838    4.4346 H     598  UNL598      0.1146
   2392 H          18.0472    9.1940    3.7448 H     598  UNL598      0.1146
   2393 N          17.3499    8.6592    6.0758 N.3   599  UNL599     -0.3437
   2394 H          17.7001    7.7419    6.3484 H     599  UNL599      0.1146
   2395 H          17.4920    9.2652    6.8827 H     599  UNL599      0.1146
   2396 H          17.9842    8.9990    5.3543 H     599  UNL599      0.1146
   2397 N          17.3908    8.5840    8.7900 N.3   600  UNL600     -0.3437
   2398 H          17.0267    8.0312    8.0152 H     600  UNL600      0.1146
   2399 H          17.9702    7.9505    9.3391 H     600  UNL600      0.1146
   2400 H          18.0298    9.2612    8.3759 H     600  UNL600      0.1146
   2401 N          17.3651    8.5672   11.2688 N.3   601  UNL601     -0.3437
   2402 H          16.9234    7.8873   10.6515 H     601  UNL601      0.1146
   2403 H          18.0907    8.0593   11.7727 H     601  UNL601      0.1146
   2404 H          17.8526    9.2236   10.6606 H     601  UNL601      0.1146
   2405 N          17.3902    8.6071   13.7894 N.3   602  UNL602     -0.3437
   2406 H          16.8280    8.0019   13.1927 H     602  UNL602      0.1146
   2407 H          18.0710    7.9998   14.2435 H     602  UNL602      0.1146
   2408 H          17.9234    9.2053   13.1600 H     602  UNL602      0.1146
   2409 N          17.3332    8.6520   15.9506 N.3   603  UNL603     -0.3437
   2410 H          16.7100    9.0827   16.6322 H     603  UNL603      0.1146
   2411 H          17.9953    9.3769   15.6779 H     603  UNL603      0.1146
   2412 H          17.8734    7.9569   16.4639 H     603  UNL603      0.1146
   2413 N          17.3778    8.3333   18.3759 N.3   604  UNL604     -0.3437
   2414 H          16.8733    9.0056   18.9519 H     604  UNL604      0.1146
   2415 H          17.9714    8.8834   17.7567 H     604  UNL604      0.1146
   2416 H          18.0094    7.8414   19.0064 H     604  UNL604      0.1146
   2417 N          17.3584    8.3483   20.8395 N.3   605  UNL605     -0.3437
   2418 H          16.8060    8.7911   21.5725 H     605  UNL605      0.1146
   2419 H          17.9000    9.0948   20.4062 H     605  UNL605      0.1146
   2420 H          18.0332    7.7528   21.3174 H     605  UNL605      0.1146
   2421 N          17.2277    8.4017   24.4709 N.3   606  UNL606     -0.3437
   2422 H          17.6735    7.8507   25.2030 H     606  UNL606      0.1146
   2423 H          17.4396    9.3754   24.6838 H     606  UNL606      0.1146
   2424 H          17.7311    8.1863   23.6114 H     606  UNL606      0.1146
   2425 N          17.0801    9.8199    1.1217 N.3   607  UNL607     -0.3437
   2426 H          17.7541   10.1706    1.8008 H     607  UNL607      0.1146
   2427 H          16.2189   10.3388    1.2869 H     607  UNL607      0.1146
   2428 H          17.4186   10.1209    0.2089 H     607  UNL607      0.1146
   2429 N          17.4275   11.2815    3.6479 N.3   608  UNL608     -0.3437
   2430 H          17.1747   10.3953    4.0828 H     608  UNL608      0.1146
   2431 H          17.9462   11.8027    4.3533 H     608  UNL608      0.1146
   2432 H          18.0995   11.0538    2.9164 H     608  UNL608      0.1146
   2433 N          17.5345   11.3144    6.1981 N.3   609  UNL609     -0.3437
   2434 H          16.8293   10.8014    6.7252 H     609  UNL609      0.1146
   2435 H          18.0676   10.6132    5.6858 H     609  UNL609      0.1146
   2436 H          17.0260   11.8492    5.4953 H     609  UNL609      0.1146
   2437 N          17.2280   11.1381    8.7329 N.3   610  UNL610     -0.3437
   2438 H          16.8322   10.3254    8.2625 H     610  UNL610      0.1146
   2439 H          17.8504   10.7712    9.4515 H     610  UNL610      0.1146
   2440 H          17.8284   11.5945    8.0477 H     610  UNL610      0.1146
   2441 N          17.3898   11.1600   11.3796 N.3   611  UNL611     -0.3437
   2442 H          16.9335   10.3997   10.8776 H     611  UNL611      0.1146
   2443 H          18.2715   10.7810   11.7223 H     611  UNL611      0.1146
   2444 H          17.6372   11.8533   10.6750 H     611  UNL611      0.1146
   2445 N          17.3790   11.1998   13.7267 N.3   612  UNL612     -0.3437
   2446 H          16.8697   10.5759   13.1024 H     612  UNL612      0.1146
   2447 H          17.9940   10.6039   14.2790 H     612  UNL612      0.1146
   2448 H          17.9892   11.7570   13.1304 H     612  UNL612      0.1146
   2449 N          17.3920   11.2296   16.3680 N.3   613  UNL613     -0.3437
   2450 H          16.8361   10.5789   15.8148 H     613  UNL613      0.1146
   2451 H          18.0220   10.6559   16.9270 H     613  UNL613      0.1146
   2452 H          17.9819   11.7297   15.7045 H     613  UNL613      0.1146
   2453 N          17.2049   10.9512   18.7246 N.3   614  UNL614     -0.3437
   2454 H          16.6016   10.6427   17.9635 H     614  UNL614      0.1146
   2455 H          17.8562   10.1861   18.8946 H     614  UNL614      0.1146
   2456 H          17.7628   11.7164   18.3482 H     614  UNL614      0.1146
   2457 N          17.3138   10.9149   20.8773 N.3   615  UNL615     -0.3437
   2458 H          17.3852   10.3872   21.7461 H     615  UNL615      0.1146
   2459 H          17.3642   11.8979   21.1408 H     615  UNL615      0.1146
   2460 H          18.1687   10.7190   20.3586 H     615  UNL615      0.1146
   2461 N          17.1904   11.2534   23.7409 N.3   616  UNL616     -0.3437
   2462 H          16.8784   10.3273   23.4524 H     616  UNL616      0.1146
   2463 H          17.9458   11.1003   24.4075 H     616  UNL616      0.1146
   2464 H          17.6221   11.6731   22.9188 H     616  UNL616      0.1146
   2465 N          17.5122   11.9921    1.0893 N.3   617  UNL617     -0.3437
   2466 H          18.1515   12.2138    0.3273 H     617  UNL617      0.1146
   2467 H          17.6850   12.6887    1.8126 H     617  UNL617      0.1146
   2468 H          16.5760   12.1819    0.7346 H     617  UNL617      0.1146
   2469 N          17.3415   13.8684    3.6331 N.3   618  UNL618     -0.3437
   2470 H          17.0000   12.9183    3.7707 H     618  UNL618      0.1146
   2471 H          17.8479   14.1108    4.4835 H     618  UNL618      0.1146
   2472 H          18.0425   13.8109    2.8957 H     618  UNL618      0.1146
   2473 N          17.3442   13.8409    6.3572 N.3   619  UNL619     -0.3437
   2474 H          16.9810   13.4392    5.4940 H     619  UNL619      0.1146
   2475 H          17.9259   13.1189    6.7800 H     619  UNL619      0.1146
   2476 H          17.9809   14.5847    6.0747 H     619  UNL619      0.1146
   2477 N          17.3912   13.7680    8.7554 N.3   620  UNL620     -0.3437
   2478 H          16.8001   13.1551    8.1957 H     620  UNL620      0.1146
   2479 H          18.0270   13.1563    9.2653 H     620  UNL620      0.1146
   2480 H          17.9686   14.2834    8.0926 H     620  UNL620      0.1146
   2481 N          17.3126   13.7286   11.3096 N.3   621  UNL621     -0.3437
   2482 H          16.9270   13.1930   10.5332 H     621  UNL621      0.1146
   2483 H          18.1272   13.2084   11.6325 H     621  UNL621      0.1146
   2484 H          17.6730   14.5912   10.9041 H     621  UNL621      0.1146
   2485 N          17.3213   13.9028   13.6694 N.3   622  UNL622     -0.3437
   2486 H          17.0830   13.1184   13.0642 H     622  UNL622      0.1146
   2487 H          17.9280   13.5236   14.3950 H     622  UNL622      0.1146
   2488 H          17.9060   14.5220   13.1098 H     622  UNL622      0.1146
   2489 N          17.3736   13.8520   16.2078 N.3   623  UNL623     -0.3437
   2490 H          16.8850   13.3321   15.4803 H     623  UNL623      0.1146
   2491 H          17.9952   13.1839   16.6612 H     623  UNL623      0.1146
   2492 H          17.9781   14.5134   15.7225 H     623  UNL623      0.1146
   2493 N          17.3872   13.8622   18.6738 N.3   624  UNL624     -0.3437
   2494 H          16.8722   13.2626   18.0307 H     624  UNL624      0.1146
   2495 H          17.9653   13.2396   19.2365 H     624  UNL624      0.1146
   2496 H          18.0329   14.4016   18.0989 H     624  UNL624      0.1146
   2497 N          17.0983   14.3485   21.0856 N.3   625  UNL625     -0.3437
   2498 H          16.7568   13.4767   20.6835 H     625  UNL625      0.1146
   2499 H          17.6047   14.0886   21.9308 H     625  UNL625      0.1146
   2500 H          17.7993   14.7019   20.4358 H     625  UNL625      0.1146
   2501 N          17.4147   13.9301   24.7654 N.3   626  UNL626     -0.3437
   2502 H          17.5501   13.6711   23.7891 H     626  UNL626      0.1146
   2503 H          16.9467   13.1381   25.2037 H     626  UNL626      0.1146
   2504 H          18.3460   13.9691   25.1773 H     626  UNL626      0.1146
   2505 N          17.2905   16.2528    1.3468 N.3   627  UNL627     -0.3437
   2506 H          17.7922   15.4141    1.0582 H     627  UNL627      0.1146
   2507 H          17.8975   16.7278    2.0134 H     627  UNL627      0.1146
   2508 H          17.2517   16.8537    0.5247 H     627  UNL627      0.1146
   2509 N          17.3825   16.4481    3.9152 N.3   628  UNL628     -0.3437
   2510 H          16.8606   16.0440    3.1389 H     628  UNL628      0.1146
   2511 H          18.0157   15.7179    4.2382 H     628  UNL628      0.1146
   2512 H          17.9730   17.1728    3.5098 H     628  UNL628      0.1146
   2513 N          17.3430   16.5260    6.3378 N.3   629  UNL629     -0.3437
   2514 H          16.9887   15.9376    5.5850 H     629  UNL629      0.1146
   2515 H          18.0121   15.9536    6.8506 H     629  UNL629      0.1146
   2516 H          17.8881   17.2600    5.8878 H     629  UNL629      0.1146
   2517 N          17.3806   16.4842    8.7997 N.3   630  UNL630     -0.3437
   2518 H          16.8835   15.8901    8.1376 H     630  UNL630      0.1146
   2519 H          17.9857   15.8631    9.3350 H     630  UNL630      0.1146
   2520 H          18.0014   17.0686    8.2415 H     630  UNL630      0.1146
   2521 N          17.3633   16.8172   11.2717 N.3   631  UNL631     -0.3437
   2522 H          16.9025   16.1513   10.6532 H     631  UNL631      0.1146
   2523 H          18.0554   16.2824   11.7945 H     631  UNL631      0.1146
   2524 H          17.8915   17.4439   10.6663 H     631  UNL631      0.1146
   2525 N          17.4065   16.5171   13.7696 N.3   632  UNL632     -0.3437
   2526 H          16.8032   16.0051   13.1275 H     632  UNL632      0.1146
   2527 H          18.0578   15.8318   14.1499 H     632  UNL632      0.1146
   2528 H          17.9644   17.1439   13.1914 H     632  UNL632      0.1146
   2529 N          17.3315   16.4644   16.2874 N.3   633  UNL633     -0.3437
   2530 H          16.8898   15.8904   15.5706 H     633  UNL633      0.1146
   2531 H          18.0571   15.8833   16.7049 H     633  UNL633      0.1146
   2532 H          17.8190   17.2085   15.7905 H     633  UNL633      0.1146
   2533 N          15.2680   16.5352   18.7163 N.3   634  UNL634     -0.3437
   2534 H          14.7381   15.9592   18.0638 H     634  UNL634      0.1146
   2535 H          15.9094   15.9025   19.1925 H     634  UNL634      0.1146
   2536 H          15.8491   17.1459   18.1440 H     634  UNL634      0.1146
   2537 N          17.4006   16.7580   20.8143 N.3   635  UNL635     -0.3437
   2538 H          16.8435   17.0278   21.6237 H     635  UNL635      0.1146
   2539 H          17.9173   17.5919   20.5384 H     635  UNL635      0.1146
   2540 H          18.0961   16.0981   21.1593 H     635  UNL635      0.1146
   2541 N          17.3315   16.3137   24.2486 N.3   636  UNL636     -0.3437
   2542 H          16.9552   16.0220   25.1495 H     636  UNL636      0.1146
   2543 H          17.6234   17.2829   24.3666 H     636  UNL636      0.1146
   2544 H          18.1873   15.7770   24.1147 H     636  UNL636      0.1146
   2545 N          17.6596   18.9735   -1.2734 N.3   637  UNL637     -0.3437
   2546 H          18.2458   18.5953   -0.5306 H     637  UNL637      0.1146
   2547 H          16.8148   18.4037   -1.2822 H     637  UNL637      0.1146
   2548 H          17.3709   19.8990   -0.9595 H     637  UNL637      0.1146
   2549 N          17.3488   19.0632    1.4712 N.3   638  UNL638     -0.3437
   2550 H          16.8754   18.5311    0.7424 H     638  UNL638      0.1146
   2551 H          18.2051   18.5521    1.6808 H     638  UNL638      0.1146
   2552 H          17.6425   19.9364    1.0357 H     638  UNL638      0.1146
   2553 N          17.3356   19.8836    3.5327 N.3   639  UNL639     -0.3437
   2554 H          16.8393   20.3427    4.2950 H     639  UNL639      0.1146
   2555 H          17.9597   20.5869    3.1400 H     639  UNL639      0.1146
   2556 H          17.9373   19.1864    3.9688 H     639  UNL639      0.1146
   2557 N          17.3115   19.8545    6.0367 N.3   640  UNL640     -0.3437
   2558 H          16.9143   20.4533    6.7592 H     640  UNL640      0.1146
   2559 H          17.9201   20.4525    5.4796 H     640  UNL640      0.1146
   2560 H          17.9259   19.2009    6.5200 H     640  UNL640      0.1146
   2561 N          17.3542   19.3168    8.3904 N.3   641  UNL641     -0.3437
   2562 H          16.7971   19.4676    9.2302 H     641  UNL641      0.1146
   2563 H          17.8709   20.1817    8.2370 H     641  UNL641      0.1146
   2564 H          18.0497   18.6142    8.6371 H     641  UNL641      0.1146
   2565 N          17.5160   20.2572   10.8832 N.3   642  UNL642     -0.3437
   2566 H          16.7717   20.7413   11.3833 H     642  UNL642      0.1146
   2567 H          18.3884   20.5678   11.3085 H     642  UNL642      0.1146
   2568 H          17.4214   19.2716   11.1243 H     642  UNL642      0.1146
   2569 N          17.3572   19.1438   13.8093 N.3   643  UNL643     -0.3437
   2570 H          16.8264   18.4977   13.2269 H     643  UNL643      0.1146
   2571 H          18.1436   18.6097   14.1764 H     643  UNL643      0.1146
   2572 H          17.7575   19.8316   13.1729 H     643  UNL643      0.1146
   2573 N          17.3356   19.8948   15.8565 N.3   644  UNL644     -0.3437
   2574 H          16.8393   20.3539   16.6189 H     644  UNL644      0.1146
   2575 H          17.9597   20.5981   15.4638 H     644  UNL644      0.1146
   2576 H          17.9373   19.1976   16.2927 H     644  UNL644      0.1146
   2577 N          17.2990   19.8516   18.3799 N.3   645  UNL645     -0.3437
   2578 H          16.9530   20.4692   19.1128 H     645  UNL645      0.1146
   2579 H          17.8766   20.4318   17.7732 H     645  UNL645      0.1146
   2580 H          17.9370   19.2022   18.8378 H     645  UNL645      0.1146
   2581 N          17.2560   19.9531   20.9073 N.3   646  UNL646     -0.3437
   2582 H          17.2070   20.0898   21.9159 H     646  UNL646      0.1146
   2583 H          17.8257   20.7175   20.5475 H     646  UNL646      0.1146
   2584 H          17.8023   19.1047   20.7650 H     646  UNL646      0.1146
   2585 N          17.7283   20.0230   24.6866 N.3   647  UNL647     -0.3437
   2586 H          18.0227   20.4549   23.8119 H     647  UNL647      0.1146
   2587 H          16.8619   20.4891   24.9523 H     647  UNL647      0.1146
   2588 H          17.4717   19.0646   24.4542 H     647  UNL647      0.1146
   2589 N          19.7235   -0.9642    1.1117 N.3   648  UNL648     -0.3437
   2590 H          19.2878   -1.7047    1.6596 H     648  UNL648      0.1146
   2591 H          20.3586   -0.4819    1.7460 H     648  UNL648      0.1146
   2592 H          20.3137   -1.4326    0.4257 H     648  UNL648      0.1146
   2593 N          19.7835    0.6778    3.6152 N.3   649  UNL649     -0.3437
   2594 H          19.2603    1.1486    4.3520 H     649  UNL649      0.1146
   2595 H          20.3540   -0.0261    4.0816 H     649  UNL649      0.1146
   2596 H          19.0956    0.1635    3.0669 H     649  UNL649      0.1146
   2597 N          19.8562    1.0163    6.3028 N.3   650  UNL650     -0.3437
   2598 H          20.1230    1.6702    5.5683 H     650  UNL650      0.1146
   2599 H          19.0174    1.4036    6.7326 H     650  UNL650      0.1146
   2600 H          19.5605    0.1650    5.8271 H     650  UNL650      0.1146
   2601 N          19.9978    0.3993    8.6462 N.3   651  UNL651     -0.3437
   2602 H          20.7066    0.4559    7.9163 H     651  UNL651      0.1146
   2603 H          19.6546    1.3496    8.7787 H     651  UNL651      0.1146
   2604 H          19.2224   -0.1258    8.2446 H     651  UNL651      0.1146
   2605 N          19.6213   -0.6570   11.3010 N.3   652  UNL652     -0.3437
   2606 H          19.4294   -1.6368   11.0969 H     652  UNL652      0.1146
   2607 H          20.4736   -0.6482   11.8594 H     652  UNL652      0.1146
   2608 H          19.8649   -0.2270   10.4099 H     652  UNL652      0.1146
   2609 N          19.9439    0.5367   13.7548 N.3   653  UNL653     -0.3437
   2610 H          19.4428    0.1013   12.9817 H     653  UNL653      0.1146
   2611 H          20.7858   -0.0204   13.8931 H     653  UNL653      0.1146
   2612 H          20.2599    1.4422   13.4103 H     653  UNL653      0.1146
   2613 N          19.7437    0.7172   16.0978 N.3   654  UNL654     -0.3437
   2614 H          19.2287   -0.0404   15.6515 H     654  UNL654      0.1146
   2615 H          20.3218    0.2800   16.8141 H     654  UNL654      0.1146
   2616 H          20.3894    1.0711   15.3933 H     654  UNL654      0.1146
   2617 N          19.5646    0.9126   18.5463 N.3   655  UNL655     -0.3437
   2618 H          19.3326   -0.0200   18.2077 H     655  UNL655      0.1146
   2619 H          20.4167    0.8081   19.0954 H     655  UNL655      0.1146
   2620 H          19.8257    1.4535   17.7231 H     655  UNL655      0.1146
   2621 N          18.0822    0.4388   20.8654 N.3   656  UNL656     -0.3437
   2622 H          17.7088    0.9404   21.6700 H     656  UNL656      0.1146
   2623 H          18.6583    1.1096   20.3588 H     656  UNL656      0.1146
   2624 H          18.7255   -0.2562   21.2415 H     656  UNL656      0.1146
   2625 N          19.7097   -0.9514   23.7720 N.3   657  UNL657     -0.3437
   2626 H          19.3646   -0.4064   22.9832 H     657  UNL657      0.1146
   2627 H          20.6572   -1.2338   23.5252 H     657  UNL657      0.1146
   2628 H          19.8048   -0.2958   24.5463 H     657  UNL657      0.1146
   2629 N          19.5959    2.3336    1.0744 N.3   658  UNL658     -0.3437
   2630 H          19.8299    3.2207    1.5180 H     658  UNL658      0.1146
   2631 H          20.4005    2.0856    0.5005 H     658  UNL658      0.1146
   2632 H          19.5629    1.6446    1.8245 H     658  UNL658      0.1146
   2633 N          19.9180    3.2611    3.7063 N.3   659  UNL659     -0.3437
   2634 H          19.3080    2.5580    3.2919 H     659  UNL659      0.1146
   2635 H          20.6256    2.7464    4.2286 H     659  UNL659      0.1146
   2636 H          20.4079    3.7015    2.9288 H     659  UNL659      0.1146
   2637 N          19.7417    3.5971    6.3396 N.3   660  UNL660     -0.3437
   2638 H          19.1923    4.1885    6.9614 H     660  UNL660      0.1146
   2639 H          19.0911    2.9141    5.9540 H     660  UNL660      0.1146
   2640 H          20.0199    4.1913    5.5599 H     660  UNL660      0.1146
   2641 N          19.6527    3.5005    8.7084 N.3   661  UNL661     -0.3437
   2642 H          19.4047    2.6916    8.1405 H     661  UNL661      0.1146
   2643 H          20.0355    3.1277    9.5762 H     661  UNL661      0.1146
   2644 H          20.4307    3.9520    8.2295 H     661  UNL661      0.1146
   2645 N          19.6893    1.6425   11.4712 N.3   662  UNL662     -0.3437
   2646 H          19.9203    1.5835   10.4805 H     662  UNL662      0.1146
   2647 H          20.4726    2.1205   11.9143 H     662  UNL662      0.1146
   2648 H          18.8974    2.2804   11.5374 H     662  UNL662      0.1146
   2649 N          19.7913    3.3945   13.5266 N.3   663  UNL663     -0.3437
   2650 H          19.1201    2.6841   13.2381 H     663  UNL663      0.1146
   2651 H          20.4131    2.9392   14.1932 H     663  UNL663      0.1146
   2652 H          20.3590    3.5948   12.7045 H     663  UNL663      0.1146
   2653 N          19.9486    3.3412   16.2011 N.3   664  UNL664     -0.3437
   2654 H          19.5863    2.6683   15.5272 H     664  UNL664      0.1146
   2655 H          20.5286    2.8075   16.8470 H     664  UNL664      0.1146
   2656 H          20.5867    3.9428   15.6822 H     664  UNL664      0.1146
   2657 N          17.6426    3.4894   18.5595 N.3   665  UNL665     -0.3437
   2658 H          17.1002    2.7548   18.1071 H     665  UNL665      0.1146
   2659 H          18.2946    3.0143   19.1820 H     665  UNL665      0.1146
   2660 H          18.2109    3.9109   17.8263 H     665  UNL665      0.1146
   2661 N          19.7477    3.0647   20.8110 N.3   666  UNL666     -0.3437
   2662 H          19.0870    3.4478   21.4856 H     666  UNL666      0.1146
   2663 H          20.3154    3.8503   20.4966 H     666  UNL666      0.1146
   2664 H          20.3735    2.4610   21.3425 H     666  UNL666      0.1146
   2665 N          19.9974    1.6961   24.2241 N.3   667  UNL667     -0.3437
   2666 H          19.1318    1.3893   23.7825 H     667  UNL667      0.1146
   2667 H          20.5343    2.1635   23.4950 H     667  UNL667      0.1146
   2668 H          19.7321    2.4229   24.8871 H     667  UNL667      0.1146
   2669 N          19.6652    5.7632    1.5640 N.3   668  UNL668     -0.3437
   2670 H          20.0426    4.8453    1.3332 H     668  UNL668      0.1146
   2671 H          20.3949    6.2430    2.0891 H     668  UNL668      0.1146
   2672 H          19.5809    6.2626    0.6798 H     668  UNL668      0.1146
   2673 N          19.6329    5.9063    3.7562 N.3   669  UNL669     -0.3437
   2674 H          19.0300    6.0425    4.5664 H     669  UNL669      0.1146
   2675 H          20.2622    6.7076    3.7366 H     669  UNL669      0.1146
   2676 H          20.2145    5.0978    3.9717 H     669  UNL669      0.1146
   2677 N          19.9293    6.2117    6.4498 N.3   670  UNL670     -0.3437
   2678 H          20.1791    7.0480    6.9757 H     670  UNL670      0.1146
   2679 H          20.3006    6.3489    5.5108 H     670  UNL670      0.1146
   2680 H          20.4712    5.4512    6.8577 H     670  UNL670      0.1146
   2681 N          19.8629    5.9038    8.4885 N.3   671  UNL671     -0.3437
   2682 H          19.1554    5.2628    8.1322 H     671  UNL671      0.1146
   2683 H          19.3641    6.5816    9.0630 H     671  UNL671      0.1146
   2684 H          20.4370    5.3596    9.1309 H     671  UNL671      0.1146
   2685 N          19.8193    5.8899   11.2222 N.3   672  UNL672     -0.3437
   2686 H          19.6866    5.0564   10.6511 H     672  UNL672      0.1146
   2687 H          20.4852    5.6298   11.9483 H     672  UNL672      0.1146
   2688 H          20.3005    6.5636   10.6281 H     672  UNL672      0.1146
   2689 N          19.7517    5.8573   13.8219 N.3   673  UNL673     -0.3437
   2690 H          19.2652    5.2464   13.1674 H     673  UNL673      0.1146
   2691 H          20.5886    5.3517   14.1090 H     673  UNL673      0.1146
   2692 H          20.0780    6.6524   13.2745 H     673  UNL673      0.1146
   2693 N          19.7447    5.9904   16.1036 N.3   674  UNL674     -0.3437
   2694 H          19.1219    5.4177   15.5358 H     674  UNL674      0.1146
   2695 H          20.2645    5.3411   16.6924 H     674  UNL674      0.1146
   2696 H          20.4246    6.3905   15.4586 H     674  UNL674      0.1146
   2697 N          19.6016    5.9584   18.6605 N.3   675  UNL675     -0.3437
   2698 H          19.1599    5.1370   18.2499 H     675  UNL675      0.1146
   2699 H          20.3272    5.6055   19.2829 H     675  UNL675      0.1146
   2700 H          20.0891    6.4261   17.8976 H     675  UNL675      0.1146
   2701 N          19.4979    5.8570   21.2073 N.3   676  UNL676     -0.3437
   2702 H          19.2856    4.9788   20.7361 H     676  UNL676      0.1146
   2703 H          20.3511    5.6912   21.7392 H     676  UNL676      0.1146
   2704 H          19.7489    6.5166   20.4723 H     676  UNL676      0.1146
   2705 N          19.7446    4.0955   23.3400 N.3   677  UNL677     -0.3437
   2706 H          19.0733    3.3349   23.2445 H     677  UNL677      0.1146
   2707 H          19.9376    4.1764   24.3373 H     677  UNL677      0.1146
   2708 H          20.6081    3.7633   22.9129 H     677  UNL677      0.1146
   2709 N          19.8042    8.4467   -1.4701 N.3   678  UNL678     -0.3437
   2710 H          19.0040    8.6536   -0.8741 H     678  UNL678      0.1146
   2711 H          20.4407    9.2361   -1.3698 H     678  UNL678      0.1146
   2712 H          20.2747    7.6505   -1.0421 H     678  UNL678      0.1146
   2713 N          18.9062    8.4920    1.1832 N.3   679  UNL679     -0.3437
   2714 H          18.4240    8.9594    1.9496 H     679  UNL679      0.1146
   2715 H          19.5378    9.1851    0.7844 H     679  UNL679      0.1146
   2716 H          19.5006    7.7857    1.6146 H     679  UNL679      0.1146
   2717 N          19.7787    8.7239    3.7708 N.3   680  UNL680     -0.3437
   2718 H          19.1401    8.1180    3.2576 H     680  UNL680      0.1146
   2719 H          20.3498    8.1067    4.3464 H     680  UNL680      0.1146
   2720 H          20.4085    9.1215    3.0753 H     680  UNL680      0.1146
   2721 N          19.6849    9.0438    5.9289 N.3   681  UNL681     -0.3437
   2722 H          19.1220    8.9483    6.7729 H     681  UNL681      0.1146
   2723 H          20.4243    9.7065    6.1579 H     681  UNL681      0.1146
   2724 H          20.1453    8.1446    5.7951 H     681  UNL681      0.1146
   2725 N          19.7056    8.6571    8.7497 N.3   682  UNL682     -0.3437
   2726 H          19.3642    7.9044    8.1537 H     682  UNL682      0.1146
   2727 H          20.2935    8.2132    9.4538 H     682  UNL682      0.1146
   2728 H          20.3331    9.2122    8.1695 H     682  UNL682      0.1146
   2729 N          19.6949    8.6815   11.2574 N.3   683  UNL683     -0.3437
   2730 H          19.2063    8.0625   10.6121 H     683  UNL683      0.1146
   2731 H          20.3165    8.0853   11.8020 H     683  UNL683      0.1146
   2732 H          20.2994    9.2664   10.6822 H     683  UNL683      0.1146
   2733 N          19.7067    8.7424   13.7427 N.3   684  UNL684     -0.3437
   2734 H          19.1923    8.0910   13.1515 H     684  UNL684      0.1146
   2735 H          20.2865    8.1691   14.3540 H     684  UNL684      0.1146
   2736 H          20.3508    9.2340   13.1247 H     684  UNL684      0.1146
   2737 N          19.6768    8.4412   16.2279 N.3   685  UNL685     -0.3437
   2738 H          19.2988    7.9253   15.4345 H     685  UNL685      0.1146
   2739 H          20.2514    7.7780   16.7461 H     685  UNL685      0.1146
   2740 H          20.3222    9.1256   15.8362 H     685  UNL685      0.1146
   2741 N          19.6496    8.6363   18.3388 N.3   686  UNL686     -0.3437
   2742 H          19.2079    9.2649   19.0082 H     686  UNL686      0.1146
   2743 H          20.3752    9.1827   17.8769 H     686  UNL686      0.1146
   2744 H          20.1371    7.9336   18.8928 H     686  UNL686      0.1146
   2745 N          19.8088    8.2763   20.8486 N.3   687  UNL687     -0.3437
   2746 H          19.4799    8.9930   21.4939 H     687  UNL687      0.1146
   2747 H          20.4443    8.7471   20.2061 H     687  UNL687      0.1146
   2748 H          20.3858    7.6441   21.4014 H     687  UNL687      0.1146
   2749 N          19.7530    7.0584   23.3025 N.3   688  UNL688     -0.3437
   2750 H          20.2446    6.1661   23.2792 H     688  UNL688      0.1146
   2751 H          18.8082    6.8672   22.9720 H     688  UNL688      0.1146
   2752 H          19.6617    7.3031   24.2875 H     688  UNL688      0.1146
   2753 N          19.9387   11.2961   -0.0240 N.3   689  UNL689     -0.3437
   2754 H          19.4417   10.4341   -0.2437 H     689  UNL689      0.1146
   2755 H          20.8530   11.2139   -0.4664 H     689  UNL689      0.1146
   2756 H          19.4502   12.0373   -0.5245 H     689  UNL689      0.1146
   2757 N          19.9619   10.8970    2.2595 N.3   690  UNL690     -0.3437
   2758 H          20.3795   10.2989    1.5479 H     690  UNL690      0.1146
   2759 H          20.6548   11.6155    2.4644 H     690  UNL690      0.1146
   2760 H          19.1866   11.3763    1.8039 H     690  UNL690      0.1146
   2761 N          19.8893   11.0305    4.9238 N.3   691  UNL691     -0.3437
   2762 H          19.3877   11.0317    4.0368 H     691  UNL691      0.1146
   2763 H          20.6414   10.3507    4.8203 H     691  UNL691      0.1146
   2764 H          20.3413   11.9412    4.9922 H     691  UNL691      0.1146
   2765 N          19.6031   11.1900    8.3826 N.3   692  UNL692     -0.3437
   2766 H          19.2179   10.4938    7.7459 H     692  UNL692      0.1146
   2767 H          20.2392   10.6858    8.9987 H     692  UNL692      0.1146
   2768 H          20.1882   11.7989    7.8123 H     692  UNL692      0.1146
   2769 N          19.7634   11.3958   11.0954 N.3   693  UNL693     -0.3437
   2770 H          19.1683   10.9078   10.4275 H     693  UNL693      0.1146
   2771 H          20.3975   10.6930   11.4725 H     693  UNL693      0.1146
   2772 H          20.3416   12.0296   10.5455 H     693  UNL693      0.1146
   2773 N          19.6985   11.1928   13.7144 N.3   694  UNL694     -0.3437
   2774 H          19.3827   10.4901   13.0475 H     694  UNL694      0.1146
   2775 H          20.3815   10.7275   14.3106 H     694  UNL694      0.1146
   2776 H          20.2208   11.8797   13.1723 H     694  UNL694      0.1146
   2777 N          19.7141   11.1908   16.1805 N.3   695  UNL695     -0.3437
   2778 H          19.3184   10.5452   15.4986 H     695  UNL695      0.1146
   2779 H          20.3365   10.6350   16.7653 H     695  UNL695      0.1146
   2780 H          20.3145   11.8231   15.6531 H     695  UNL695      0.1146
   2781 N          19.7429   11.2538   18.7190 N.3   696  UNL696     -0.3437
   2782 H          19.2543   10.7339   17.9915 H     696  UNL696      0.1146
   2783 H          20.3645   10.5857   19.1724 H     696  UNL696      0.1146
   2784 H          20.3475   11.9151   18.2337 H     696  UNL696      0.1146
   2785 N          19.7276   11.2432   20.8065 N.3   697  UNL697     -0.3437
   2786 H          19.1272   11.6895   21.4983 H     697  UNL697      0.1146
   2787 H          20.4004   11.9525   20.5191 H     697  UNL697      0.1146
   2788 H          20.2620   10.5378   21.3117 H     697  UNL697      0.1146
   2789 N          19.7744    9.5432   24.6686 N.3   698  UNL698     -0.3437
   2790 H          19.6631    9.2890   23.6881 H     698  UNL698      0.1146
   2791 H          19.3387    8.7938   25.2042 H     698  UNL698      0.1146
   2792 H          20.7729    9.4832   24.8627 H     698  UNL698      0.1146
   2793 N          19.7824   13.9050    1.2887 N.3   699  UNL699     -0.3437
   2794 H          19.3407   13.0836    0.8781 H     699  UNL699      0.1146
   2795 H          20.5080   13.5521    1.9111 H     699  UNL699      0.1146
   2796 H          20.2699   14.3726    0.5258 H     699  UNL699      0.1146
   2797 N          19.6307   13.9715    3.8563 N.3   700  UNL700     -0.3437
   2798 H          19.5946   12.9949    3.5678 H     700  UNL700      0.1146
   2799 H          20.3985   14.0393    4.5229 H     700  UNL700      0.1146
   2800 H          19.9255   14.4965    3.0342 H     700  UNL700      0.1146
   2801 N          19.6517   13.5350    6.3319 N.3   701  UNL701     -0.3437
   2802 H          19.1631   13.2431    5.4867 H     701  UNL701      0.1146
   2803 H          20.2733   12.7656    6.5769 H     701  UNL701      0.1146
   2804 H          20.2562   14.3070    6.0544 H     701  UNL701      0.1146
   2805 N          19.7554   13.9396    8.4834 N.3   702  UNL702     -0.3437
   2806 H          19.2323   14.6355    9.0129 H     702  UNL702      0.1146
   2807 H          20.5477   14.4340    8.0758 H     702  UNL702      0.1146
   2808 H          20.1481   13.2995    9.1722 H     702  UNL702      0.1146
   2809 N          19.7279   13.8242   11.2703 N.3   703  UNL703     -0.3437
   2810 H          19.2542   13.2420   10.5811 H     703  UNL703      0.1146
   2811 H          20.3467   13.2007   11.7868 H     703  UNL703      0.1146
   2812 H          20.3356   14.4479   10.7411 H     703  UNL703      0.1146
   2813 N          19.7181   13.8164   13.7226 N.3   704  UNL704     -0.3437
   2814 H          19.3151   13.1496   13.0659 H     704  UNL704      0.1146
   2815 H          20.3880   13.2901   14.2817 H     704  UNL704      0.1146
   2816 H          20.2687   14.4651   13.1618 H     704  UNL704      0.1146
   2817 N          19.7269   13.8156   16.2420 N.3   705  UNL705     -0.3437
   2818 H          19.2322   13.2747   15.5342 H     705  UNL705      0.1146
   2819 H          20.3377   13.1568   16.7230 H     705  UNL705      0.1146
   2820 H          20.3420   14.4485   15.7327 H     705  UNL705      0.1146
   2821 N          19.7421   13.8264   18.6108 N.3   706  UNL706     -0.3437
   2822 H          19.2271   13.1407   18.0604 H     706  UNL706      0.1146
   2823 H          20.3202   13.2909   19.2570 H     706  UNL706      0.1146
   2824 H          20.3878   14.2777   17.9644 H     706  UNL706      0.1146
   2825 N          19.3669   13.8733   21.1364 N.3   707  UNL707     -0.3437
   2826 H          19.2331   12.9951   20.6370 H     707  UNL707      0.1146
   2827 H          20.0385   13.6758   21.8769 H     707  UNL707      0.1146
   2828 H          19.8419   14.4970   20.4854 H     707  UNL707      0.1146
   2829 N          19.6021   12.0228   23.4828 N.3   708  UNL708     -0.3437
   2830 H          19.3884   11.0577   23.2351 H     708  UNL708      0.1146
   2831 H          20.1391   11.9786   24.3477 H     708  UNL708      0.1146
   2832 H          20.2467   12.3598   22.7691 H     708  UNL708      0.1146
   2833 N          19.7396   16.3887    1.4490 N.3   709  UNL709     -0.3437
   2834 H          19.2584   16.0486    0.6177 H     709  UNL709      0.1146
   2835 H          20.3815   15.6471    1.7253 H     709  UNL709      0.1146
   2836 H          20.3233   17.1640    1.1382 H     709  UNL709      0.1146
   2837 N          19.7365   16.4406    3.8904 N.3   710  UNL710     -0.3437
   2838 H          19.2479   15.9206    3.1629 H     710  UNL710      0.1146
   2839 H          20.3581   15.7724    4.3438 H     710  UNL710      0.1146
   2840 H          20.3410   17.1019    3.4051 H     710  UNL710      0.1146
   2841 N          19.7324   16.3568    6.3225 N.3   711  UNL711     -0.3437
   2842 H          19.2599   15.7236    5.6790 H     711  UNL711      0.1146
   2843 H          20.3508   15.7748    6.8858 H     711  UNL711      0.1146
   2844 H          20.3405   16.9387    5.7482 H     711  UNL711      0.1146
   2845 N          19.7694   16.4995    8.8369 N.3   712  UNL712     -0.3437
   2846 H          19.1661   15.9875    8.1948 H     712  UNL712      0.1146
   2847 H          20.4207   15.8142    9.2172 H     712  UNL712      0.1146
   2848 H          20.3273   17.1263    8.2587 H     712  UNL712      0.1146
   2849 N          19.7816   16.5589   11.2830 N.3   713  UNL713     -0.3437
   2850 H          19.1839   15.9995   10.6761 H     713  UNL713      0.1146
   2851 H          20.3968   15.8991   11.7568 H     713  UNL713      0.1146
   2852 H          20.3789   17.1045   10.6634 H     713  UNL713      0.1146
   2853 N          19.6821   16.4412   13.7580 N.3   714  UNL714     -0.3437
   2854 H          19.3817   15.8631   12.9745 H     714  UNL714      0.1146
   2855 H          20.3442   15.8754   14.2870 H     714  UNL714      0.1146
   2856 H          20.2244   17.2031   13.3532 H     714  UNL714      0.1146
   2857 N          19.7029   16.5553   16.1584 N.3   715  UNL715     -0.3437
   2858 H          19.3072   15.8185   15.5763 H     715  UNL715      0.1146
   2859 H          20.3253   16.0892   16.8170 H     715  UNL715      0.1146
   2860 H          20.3033   17.1054   15.5458 H     715  UNL715      0.1146
   2861 N          17.6965   16.5368   18.7163 N.3   716  UNL716     -0.3437
   2862 H          17.1667   15.9607   18.0638 H     716  UNL716      0.1146
   2863 H          18.3380   15.9041   19.1925 H     716  UNL716      0.1146
   2864 H          18.2777   17.1475   18.1440 H     716  UNL716      0.1146
   2865 N          19.7024   16.9537   20.8358 N.3   717  UNL717     -0.3437
   2866 H          19.3183   17.1803   21.7520 H     717  UNL717      0.1146
   2867 H          20.2634   17.7583   20.5596 H     717  UNL717      0.1146
   2868 H          20.3610   16.1912   20.9882 H     717  UNL717      0.1146
   2869 N          20.1482   14.8397   23.5364 N.3   718  UNL718     -0.3437
   2870 H          19.8867   15.4648   24.2974 H     718  UNL718      0.1146
   2871 H          19.4069   14.1430   23.4778 H     718  UNL718      0.1146
   2872 H          20.0818   15.3928   22.6831 H     718  UNL718      0.1146
   2873 N          19.8657   20.2532   -1.4842 N.3   719  UNL719     -0.3437
   2874 H          19.0597   20.6934   -1.0427 H     719  UNL719      0.1146
   2875 H          20.6845   20.7424   -1.1254 H     719  UNL719      0.1146
   2876 H          19.9136   19.3091   -1.1038 H     719  UNL719      0.1146
   2877 N          19.8452   20.6972    1.0910 N.3   720  UNL720     -0.3437
   2878 H          19.1367   20.6473    1.8217 H     720  UNL720      0.1146
   2879 H          20.7423   20.7420    1.5722 H     720  UNL720      0.1146
   2880 H          19.8250   19.7947    0.6181 H     720  UNL720      0.1146
   2881 N          19.7029   19.9216    3.5145 N.3   721  UNL721     -0.3437
   2882 H          19.1903   20.2685    4.3239 H     721  UNL721      0.1146
   2883 H          20.3339   20.6727    3.2386 H     721  UNL721      0.1146
   2884 H          20.2965   19.1687    3.8595 H     721  UNL721      0.1146
   2885 N          19.6946   20.1028    6.0198 N.3   722  UNL722     -0.3437
   2886 H          19.2134   20.6663    6.7193 H     722  UNL722      0.1146
   2887 H          20.3094   20.7424    5.5184 H     722  UNL722      0.1146
   2888 H          20.3062   19.4738    6.5381 H     722  UNL722      0.1146
   2889 N          19.6469   20.2434    8.4905 N.3   723  UNL723     -0.3437
   2890 H          19.4665   20.6291    9.4163 H     723  UNL723      0.1146
   2891 H          20.4608   20.7412    8.1326 H     723  UNL723      0.1146
   2892 H          19.9494   19.2820    8.6408 H     723  UNL723      0.1146
   2893 N          19.7169   19.1151   11.3600 N.3   724  UNL724     -0.3437
   2894 H          19.1861   18.5593   10.6909 H     724  UNL724      0.1146
   2895 H          20.5033   18.5340   11.6467 H     724  UNL724      0.1146
   2896 H          20.1172   19.8872   10.8289 H     724  UNL724      0.1146
   2897 N          20.0271   20.1909   13.8199 N.3   725  UNL725     -0.3437
   2898 H          20.4575   20.6675   13.0287 H     725  UNL725      0.1146
   2899 H          19.2068   20.7424   14.0676 H     725  UNL725      0.1146
   2900 H          19.6722   19.3076   13.4565 H     725  UNL725      0.1146
   2901 N          19.6985   20.0388   15.8565 N.3   726  UNL726     -0.3437
   2902 H          19.2022   20.4979   16.6189 H     726  UNL726      0.1146
   2903 H          20.3226   20.7422   15.4638 H     726  UNL726      0.1146
   2904 H          20.3002   19.3416   16.2927 H     726  UNL726      0.1146
   2905 N          19.6758   20.0761   18.3313 N.3   727  UNL727     -0.3437
   2906 H          19.2989   20.7417   19.0046 H     727  UNL727      0.1146
   2907 H          20.4541   20.5492   17.8742 H     727  UNL727      0.1146
   2908 H          20.0884   19.3237   18.8809 H     727  UNL727      0.1146
   2909 N          19.6670   20.0735   20.8075 N.3   728  UNL728     -0.3437
   2910 H          19.3378   20.4808   21.6817 H     728  UNL728      0.1146
   2911 H          20.3307   20.7419   20.4187 H     728  UNL728      0.1146
   2912 H          20.2136   19.2539   21.0677 H     728  UNL728      0.1146
   2913 N          19.8047   18.9486   23.7225 N.3   729  UNL729     -0.3437
   2914 H          19.1411   18.7990   22.9638 H     729  UNL729      0.1146
   2915 H          20.5700   18.2959   23.5592 H     729  UNL729      0.1146
   2916 H          20.1933   19.8792   23.5763 H     729  UNL729      0.1146
   2917 N          22.1877    0.6389    3.5980 N.3   730  UNL730     -0.3437
   2918 H          21.6335    1.3578    4.0611 H     730  UNL730      0.1146
   2919 H          22.1324   -0.1858    4.1940 H     730  UNL730      0.1146
   2920 H          21.6841    0.4025    2.7442 H     730  UNL730      0.1146
   2921 N          22.0938    0.6700    5.9063 N.3   731  UNL731     -0.3437
   2922 H          22.9835    0.2787    6.2124 H     731  UNL731      0.1146
   2923 H          21.4500   -0.1168    5.8365 H     731  UNL731      0.1146
   2924 H          21.7568    1.2407    6.6803 H     731  UNL731      0.1146
   2925 N          22.5101    0.3822    8.3826 N.3   732  UNL732     -0.3437
   2926 H          23.1368   -0.2472    8.8820 H     732  UNL732      0.1146
   2927 H          21.9476    0.8433    9.0964 H     732  UNL732      0.1146
   2928 H          23.1023    1.1072    7.9800 H     732  UNL732      0.1146
   2929 N          22.0927    0.3245   11.1167 N.3   733  UNL733     -0.3437
   2930 H          22.4064   -0.0364   12.0165 H     733  UNL733      0.1146
   2931 H          21.8736    1.3079   11.2694 H     733  UNL733      0.1146
   2932 H          22.9097    0.3101   10.5079 H     733  UNL733      0.1146
   2933 N          22.0686    0.7268   15.8635 N.3   734  UNL734     -0.3437
   2934 H          21.6269   -0.0655   16.3277 H     734  UNL734      0.1146
   2935 H          22.7942    1.0558   16.4989 H     734  UNL734      0.1146
   2936 H          22.5561    0.3427   15.0553 H     734  UNL734      0.1146
   2937 N          22.0110    0.4310   18.4267 N.3   735  UNL735     -0.3437
   2938 H          21.5693   -0.2865   18.9998 H     735  UNL735      0.1146
   2939 H          22.7366    0.8477   19.0082 H     735  UNL735      0.1146
   2940 H          22.4985   -0.0651   17.6819 H     735  UNL735      0.1146
   2941 N          20.4450    0.4719   20.8143 N.3   736  UNL736     -0.3437
   2942 H          19.9324    0.8188   21.6237 H     736  UNL736      0.1146
   2943 H          21.0760    1.2230   20.5384 H     736  UNL736      0.1146
   2944 H          21.0387   -0.2810   21.1593 H     736  UNL736      0.1146
   2945 N          22.0295    0.3897   23.9895 N.3   737  UNL737     -0.3437
   2946 H          22.2175    1.2096   23.4142 H     737  UNL737      0.1146
   2947 H          22.8149   -0.2427   23.8423 H     737  UNL737      0.1146
   2948 H          22.0989    0.7033   24.9566 H     737  UNL737      0.1146
   2949 N          22.1155    1.2452    1.0929 N.3   738  UNL738     -0.3437
   2950 H          21.5386    1.7034    1.7969 H     738  UNL738      0.1146
   2951 H          22.9173    0.8629    1.5922 H     738  UNL738      0.1146
   2952 H          21.5781    0.4426    0.7682 H     738  UNL738      0.1146
   2953 N          22.6120    3.2499    3.3556 N.3   739  UNL739     -0.3437
   2954 H          22.9732    4.0930    2.9116 H     739  UNL739      0.1146
   2955 H          22.0847    3.5646    4.1688 H     739  UNL739      0.1146
   2956 H          21.9261    2.8635    2.7085 H     739  UNL739      0.1146
   2957 N          22.4276    3.0836    6.3458 N.3   740  UNL740     -0.3437
   2958 H          22.4938    4.0180    5.9445 H     740  UNL740      0.1146
   2959 H          21.5237    3.0427    6.8145 H     740  UNL740      0.1146
   2960 H          22.3638    2.4427    5.5562 H     740  UNL740      0.1146
   2961 N          22.0706    3.0647    8.8451 N.3   741  UNL741     -0.3437
   2962 H          21.5663    2.3275    8.3546 H     741  UNL741      0.1146
   2963 H          22.6293    2.5969    9.5574 H     741  UNL741      0.1146
   2964 H          22.7347    3.4460    8.1728 H     741  UNL741      0.1146
   2965 N          21.6931    3.3909   11.1738 N.3   742  UNL742     -0.3437
   2966 H          21.2044    2.6858   10.6240 H     742  UNL742      0.1146
   2967 H          22.3147    2.8791   11.7984 H     742  UNL742      0.1146
   2968 H          22.2976    3.8872   10.5207 H     742  UNL742      0.1146
   2969 N          22.2104    1.6038   13.3654 N.3   743  UNL743     -0.3437
   2970 H          21.8141    1.8859   14.2608 H     743  UNL743      0.1146
   2971 H          23.1087    2.0795   13.2934 H     743  UNL743      0.1146
   2972 H          22.4244    0.6114   13.4532 H     743  UNL743      0.1146
   2973 N          22.5596    3.2129   16.2844 N.3   744  UNL744     -0.3437
   2974 H          21.9528    2.6825   15.6608 H     744  UNL744      0.1146
   2975 H          23.4127    2.6637   16.3802 H     744  UNL744      0.1146
   2976 H          22.8229    4.0535   15.7721 H     744  UNL744      0.1146
   2977 N          20.1949    3.3725   18.7511 N.3   745  UNL745     -0.3437
   2978 H          19.5130    3.0181   18.0820 H     745  UNL745      0.1146
   2979 H          20.7513    2.5683   19.0378 H     745  UNL745      0.1146
   2980 H          20.8233    3.9737   18.2200 H     745  UNL745      0.1146
   2981 N          22.0057    3.3984   21.1607 N.3   746  UNL746     -0.3437
   2982 H          21.6020    2.6919   20.5473 H     746  UNL746      0.1146
   2983 H          22.5707    2.8908   21.8401 H     746  UNL746      0.1146
   2984 H          22.6625    3.9259   20.5875 H     746  UNL746      0.1146
   2985 N          22.2523    3.0290   24.5245 N.3   747  UNL747     -0.3437
   2986 H          21.5620    3.3448   25.2043 H     747  UNL747      0.1146
   2987 H          22.6043    3.8704   24.0700 H     747  UNL747      0.1146
   2988 H          23.0304    2.6563   25.0667 H     747  UNL747      0.1146
   2989 N          22.3933    4.0685    0.6149 N.3   748  UNL748     -0.3437
   2990 H          22.6943    4.2680   -0.3380 H     748  UNL748      0.1146
   2991 H          21.4683    4.4853    0.7103 H     748  UNL748      0.1146
   2992 H          22.2529    3.0602    0.6598 H     748  UNL748      0.1146
   2993 N          22.0799    5.8380    3.9144 N.3   749  UNL749     -0.3437
   2994 H          21.7091    5.3906    3.0773 H     749  UNL749      0.1146
   2995 H          22.6457    5.1319    4.3831 H     749  UNL749      0.1146
   2996 H          22.7325    6.5489    3.5872 H     749  UNL749      0.1146
   2997 N          22.1254    5.9782    6.2082 N.3   750  UNL750     -0.3437
   2998 H          21.5680    5.2939    5.6988 H     750  UNL750      0.1146
   2999 H          22.7918    5.4416    6.7617 H     750  UNL750      0.1146
   3000 H          22.6757    6.4708    5.5062 H     750  UNL750      0.1146
   3001 N          22.1002    6.0525    8.4079 N.3   751  UNL751     -0.3437
   3002 H          21.7028    6.3653    9.2926 H     751  UNL751      0.1146
   3003 H          22.9138    6.6429    8.2410 H     751  UNL751      0.1146
   3004 H          22.4633    5.1158    8.5787 H     751  UNL751      0.1146
   3005 N          22.2476    5.7118   11.3887 N.3   752  UNL752     -0.3437
   3006 H          22.9714    5.2996   11.9757 H     752  UNL752      0.1146
   3007 H          22.4190    6.7162   11.3951 H     752  UNL752      0.1146
   3008 H          22.4445    5.3993   10.4390 H     752  UNL752      0.1146
   3009 N          22.3747    4.2357   13.7303 N.3   753  UNL753     -0.3437
   3010 H          22.8983    3.6198   13.1099 H     753  UNL753      0.1146
   3011 H          21.6385    4.6492   13.1598 H     753  UNL753      0.1146
   3012 H          21.9038    3.6271   14.3983 H     753  UNL753      0.1146
   3013 N          22.1049    6.0928   15.6103 N.3   754  UNL754     -0.3437
   3014 H          21.7344    5.3005   16.1331 H     754  UNL754      0.1146
   3015 H          22.9142    6.4218   16.1350 H     754  UNL754      0.1146
   3016 H          22.4714    5.7087   14.7405 H     754  UNL754      0.1146
   3017 N          22.0592    6.0364   18.3472 N.3   755  UNL755     -0.3437
   3018 H          21.8058    5.2965   19.0004 H     755  UNL755      0.1146
   3019 H          22.8143    6.5568   18.7914 H     755  UNL755      0.1146
   3020 H          22.4752    5.5701   17.5423 H     755  UNL755      0.1146
   3021 N          22.2362    6.0781   20.9866 N.3   756  UNL756     -0.3437
   3022 H          22.6757    5.7188   21.8328 H     756  UNL756      0.1146
   3023 H          22.9627    6.0808   20.2721 H     756  UNL756      0.1146
   3024 H          21.5615    5.3708   20.6985 H     756  UNL756      0.1146
   3025 N          21.7877    6.0587   24.9586 N.3   757  UNL757     -0.3437
   3026 H          21.8315    6.1411   23.9439 H     757  UNL757      0.1146
   3027 H          20.8017    6.1341   25.2042 H     757  UNL757      0.1146
   3028 H          22.0583    5.1003   25.1745 H     757  UNL757      0.1146
   3029 N          22.2375    6.5849    1.2559 N.3   758  UNL758     -0.3437
   3030 H          21.5850    6.8432    0.5172 H     758  UNL758      0.1146
   3031 H          23.1169    7.0467    1.0281 H     758  UNL758      0.1146
   3032 H          21.8951    7.0354    2.1034 H     758  UNL758      0.1146
   3033 N          22.1407    8.5974    3.9059 N.3   759  UNL759     -0.3437
   3034 H          21.5857    7.9145    3.3920 H     759  UNL759      0.1146
   3035 H          22.8082    8.0594    4.4568 H     759  UNL759      0.1146
   3036 H          22.6903    9.0956    3.2073 H     759  UNL759      0.1146
   3037 N          22.0892    8.3376    6.4698 N.3   760  UNL760     -0.3437
   3038 H          21.7260    8.0639    5.5579 H     760  UNL760      0.1146
   3039 H          22.6709    7.5624    6.7846 H     760  UNL760      0.1146
   3040 H          22.7259    9.1142    6.2969 H     760  UNL760      0.1146
   3041 N          22.1910    8.4132    8.5472 N.3   761  UNL761     -0.3437
   3042 H          22.3724    7.9217    9.4213 H     761  UNL761      0.1146
   3043 H          21.9523    9.3692    8.8068 H     761  UNL761      0.1146
   3044 H          23.0869    8.4685    8.0649 H     761  UNL761      0.1146
   3045 N          22.0542    8.8526   11.2758 N.3   762  UNL762     -0.3437
   3046 H          21.6125    8.0312   10.8652 H     762  UNL762      0.1146
   3047 H          22.7798    8.4997   11.8982 H     762  UNL762      0.1146
   3048 H          22.5417    9.3203   10.5129 H     762  UNL762      0.1146
   3049 N          22.3518    7.0569   13.3213 N.3   763  UNL763     -0.3437
   3050 H          22.9810    7.0683   14.1228 H     763  UNL763      0.1146
   3051 H          21.6616    6.3331   13.5163 H     763  UNL763      0.1146
   3052 H          21.8465    7.9414   13.3483 H     763  UNL763      0.1146
   3053 N          22.1008    8.4685   16.1699 N.3   764  UNL764     -0.3437
   3054 H          22.6364    7.8714   16.7983 H     764  UNL764      0.1146
   3055 H          22.6474    9.3214   16.0590 H     764  UNL764      0.1146
   3056 H          22.1154    8.0057   15.2622 H     764  UNL764      0.1146
   3057 N          22.0110    8.6422   18.6503 N.3   765  UNL765     -0.3437
   3058 H          21.5693    7.9092   18.0972 H     765  UNL765      0.1146
   3059 H          22.7366    8.1820   19.1982 H     765  UNL765      0.1146
   3060 H          22.4985    9.2408   17.9852 H     765  UNL765      0.1146
   3061 N          22.0798    8.8023   20.8963 N.3   766  UNL766     -0.3437
   3062 H          21.5222    9.2162   21.6420 H     766  UNL766      0.1146
   3063 H          22.7000    9.5406   20.5665 H     766  UNL766      0.1146
   3064 H          22.6796    8.1112   21.3446 H     766  UNL766      0.1146
   3065 N          22.2289    8.2129   23.3848 N.3   767  UNL767     -0.3437
   3066 H          22.1702    8.4962   24.3619 H     767  UNL767      0.1146
   3067 H          21.2844    8.2953   23.0113 H     767  UNL767      0.1146
   3068 H          22.7796    8.9313   22.9167 H     767  UNL767      0.1146
   3069 N          21.7213    9.2636    1.2054 N.3   768  UNL768     -0.3437
   3070 H          21.2519    8.6958    1.9094 H     768  UNL768      0.1146
   3071 H          22.2590    9.9603    1.7192 H     768  UNL768      0.1146
   3072 H          22.4053    8.6522    0.7618 H     768  UNL768      0.1146
   3073 N          22.0084   11.0246    3.6853 N.3   769  UNL769     -0.3437
   3074 H          22.4767   10.5477    4.4545 H     769  UNL769      0.1146
   3075 H          22.0289   12.0169    3.9160 H     769  UNL769      0.1146
   3076 H          22.6150   10.9122    2.8743 H     769  UNL769      0.1146
   3077 N          21.9426   11.1996    6.2972 N.3   770  UNL770     -0.3437
   3078 H          21.8920   10.2718    5.8788 H     770  UNL770      0.1146
   3079 H          22.7371   11.1771    6.9349 H     770  UNL770      0.1146
   3080 H          22.2051   11.8335    5.5438 H     770  UNL770      0.1146
   3081 N          22.2910   11.3425    8.9027 N.3   771  UNL771     -0.3437
   3082 H          21.6869   10.9593    8.1771 H     771  UNL771      0.1146
   3083 H          22.9400   10.5970    9.1506 H     771  UNL771      0.1146
   3084 H          22.8511   12.0634    8.4500 H     771  UNL771      0.1146
   3085 N          22.0937   11.3300   11.2121 N.3   772  UNL772     -0.3437
   3086 H          21.6212   10.6969   10.5685 H     772  UNL772      0.1146
   3087 H          22.7121   10.7481   11.7754 H     772  UNL772      0.1146
   3088 H          22.7018   11.9120   10.6378 H     772  UNL772      0.1146
   3089 N          22.0834   11.0957   13.7286 N.3   773  UNL773     -0.3437
   3090 H          21.5948   10.4767   13.0832 H     773  UNL773      0.1146
   3091 H          22.7051   10.4995   14.2732 H     773  UNL773      0.1146
   3092 H          22.6880   11.6805   13.1534 H     773  UNL773      0.1146
   3093 N          22.0754   11.3461   16.1584 N.3   774  UNL774     -0.3437
   3094 H          21.6797   10.6094   15.5763 H     774  UNL774      0.1146
   3095 H          22.6979   10.8800   16.8170 H     774  UNL774      0.1146
   3096 H          22.6759   11.8962   15.5458 H     774  UNL774      0.1146
   3097 N          22.0994   11.1978   18.6758 N.3   775  UNL775     -0.3437
   3098 H          21.6108   10.6779   17.9483 H     775  UNL775      0.1146
   3099 H          22.7211   10.5297   19.1292 H     775  UNL775      0.1146
   3100 H          22.7040   11.8591   18.1905 H     775  UNL775      0.1146
   3101 N          22.0748   11.4870   21.1759 N.3   776  UNL776     -0.3437
   3102 H          22.7389   11.9639   20.5678 H     776  UNL776      0.1146
   3103 H          21.5550   10.8470   20.5770 H     776  UNL776      0.1146
   3104 H          22.6322   10.9011   21.7959 H     776  UNL776      0.1146
   3105 N          22.0600   10.8608   23.8349 N.3   777  UNL777     -0.3437
   3106 H          21.9892   11.0708   24.8295 H     777  UNL777      0.1146
   3107 H          22.1641   11.7590   23.3648 H     777  UNL777      0.1146
   3108 H          22.9476   10.3755   23.7128 H     777  UNL777      0.1146
   3109 N          22.1973   12.1093    1.2239 N.3   778  UNL778     -0.3437
   3110 H          22.8837   12.2198    0.4790 H     778  UNL778      0.1146
   3111 H          22.4502   12.7870    1.9417 H     778  UNL778      0.1146
   3112 H          21.3097   12.4276    0.8375 H     778  UNL778      0.1146
   3113 N          22.0517   14.0426    3.6214 N.3   779  UNL779     -0.3437
   3114 H          21.4757   13.3456    3.1516 H     779  UNL779      0.1146
   3115 H          22.6829   13.5221    4.2289 H     779  UNL779      0.1146
   3116 H          22.6369   14.4574    2.8977 H     779  UNL779      0.1146
   3117 N          22.1324   13.8917    6.2585 N.3   780  UNL780     -0.3437
   3118 H          21.5291   13.3798    5.6164 H     780  UNL780      0.1146
   3119 H          22.7836   13.2064    6.6388 H     780  UNL780      0.1146
   3120 H          22.6902   14.5185    5.6803 H     780  UNL780      0.1146
   3121 N          22.0920   13.8470    8.7725 N.3   781  UNL781     -0.3437
   3122 H          21.6616   13.1977    8.1156 H     781  UNL781      0.1146
   3123 H          22.6537   13.2771    9.4034 H     781  UNL781      0.1146
   3124 H          22.7536   14.3993    8.2288 H     781  UNL781      0.1146
   3125 N          22.0791   13.7822   11.3133 N.3   782  UNL782     -0.3437
   3126 H          21.5177   13.2313   10.6654 H     782  UNL782      0.1146
   3127 H          22.8339   13.1707   11.6211 H     782  UNL782      0.1146
   3128 H          22.5189   14.5115   10.7539 H     782  UNL782      0.1146
   3129 N          22.1066   13.9272   13.6973 N.3   783  UNL783     -0.3437
   3130 H          21.5916   13.2415   13.1468 H     783  UNL783      0.1146
   3131 H          22.6847   13.3917   14.3434 H     783  UNL783      0.1146
   3132 H          22.7523   14.3785   13.0509 H     783  UNL783      0.1146
   3133 N          22.0994   13.9947   16.1870 N.3   784  UNL784     -0.3437
   3134 H          21.6108   13.3757   15.5416 H     784  UNL784      0.1146
   3135 H          22.7211   13.3985   16.7316 H     784  UNL784      0.1146
   3136 H          22.7040   14.5796   15.6118 H     784  UNL784      0.1146
   3137 N          22.1619   14.0487   18.7963 N.3   785  UNL785     -0.3437
   3138 H          21.8423   13.2795   18.2093 H     785  UNL785      0.1146
   3139 H          22.7983   13.6367   19.4772 H     785  UNL785      0.1146
   3140 H          22.7362   14.6396   18.1969 H     785  UNL785      0.1146
   3141 N          22.2011   13.8887   21.6551 N.3   786  UNL786     -0.3437
   3142 H          21.5893   13.4080   20.9971 H     786  UNL786      0.1146
   3143 H          22.8675   13.1900   21.9809 H     786  UNL786      0.1146
   3144 H          22.7398   14.5544   21.1028 H     786  UNL786      0.1146
   3145 N          21.9975   13.5923   24.3139 N.3   787  UNL787     -0.3437
   3146 H          22.5389   12.7982   24.6524 H     787  UNL787      0.1146
   3147 H          21.8092   14.1723   25.1303 H     787  UNL787      0.1146
   3148 H          22.6297   14.1328   23.7253 H     787  UNL787      0.1146
   3149 N          22.1192   16.3639    1.3294 N.3   788  UNL788     -0.3437
   3150 H          22.0080   15.4914    0.8150 H     788  UNL788      0.1146
   3151 H          22.7617   16.1596    2.0935 H     788  UNL788      0.1146
   3152 H          22.6175   16.9965    0.7051 H     788  UNL788      0.1146
   3153 N          22.0738   16.4774    3.8904 N.3   789  UNL789     -0.3437
   3154 H          21.5852   15.9574    3.1629 H     789  UNL789      0.1146
   3155 H          22.6955   15.8092    4.3438 H     789  UNL789      0.1146
   3156 H          22.6784   17.1387    3.4051 H     789  UNL789      0.1146
   3157 N          22.0368   17.4066    6.0064 N.3   790  UNL790     -0.3437
   3158 H          21.8993   17.9891    6.8311 H     790  UNL790      0.1146
   3159 H          22.7901   17.8430    5.4768 H     790  UNL790      0.1146
   3160 H          22.4092   16.5213    6.3468 H     790  UNL790      0.1146
   3161 N          22.0989   16.4444    8.8079 N.3   791  UNL791     -0.3437
   3162 H          21.6123   15.8903    8.1047 H     791  UNL791      0.1146
   3163 H          22.7253   15.8005    9.2890 H     791  UNL791      0.1146
   3164 H          22.6987   17.0876    8.2931 H     791  UNL791      0.1146
   3165 N          22.0656   16.5481   11.2502 N.3   792  UNL792     -0.3437
   3166 H          21.7114   15.8577   10.5897 H     792  UNL792      0.1146
   3167 H          22.7347   16.0551   11.8399 H     792  UNL792      0.1146
   3168 H          22.6108   17.2098   10.6995 H     792  UNL792      0.1146
   3169 N          22.1681   16.4264   13.8008 N.3   793  UNL793     -0.3437
   3170 H          21.4617   16.0054   13.1989 H     793  UNL793      0.1146
   3171 H          22.8534   15.6947   13.9838 H     793  UNL793      0.1146
   3172 H          22.6457   17.1219   13.2294 H     793  UNL793      0.1146
   3173 N          22.0140   17.4243   16.1369 N.3   794  UNL794     -0.3437
   3174 H          21.7552   16.4908   15.8206 H     794  UNL794      0.1146
   3175 H          22.5234   17.2939   17.0097 H     794  UNL794      0.1146
   3176 H          22.6955   17.7703   15.4630 H     794  UNL794      0.1146
   3177 N          20.1833   16.4739   18.7540 N.3   795  UNL795     -0.3437
   3178 H          19.6650   15.9063   18.0849 H     795  UNL795      0.1146
   3179 H          20.9810   15.9094   19.0427 H     795  UNL795      0.1146
   3180 H          20.5684   17.2532   18.2223 H     795  UNL795      0.1146
   3181 N          22.0457   16.9312   21.1586 N.3   796  UNL796     -0.3437
   3182 H          21.8076   16.2851   20.4075 H     796  UNL796      0.1146
   3183 H          22.6062   16.3972   21.8213 H     796  UNL796      0.1146
   3184 H          22.6757   17.6190   20.7483 H     796  UNL796      0.1146
   3185 N          21.9166   16.5319   24.4134 N.3   797  UNL797     -0.3437
   3186 H          22.0823   15.9081   25.2020 H     797  UNL797      0.1146
   3187 H          22.3650   17.4147   24.6546 H     797  UNL797      0.1146
   3188 H          22.4513   16.1489   23.6351 H     797  UNL797      0.1146
   3189 N          22.1214   19.0786    1.5362 N.3   798  UNL798     -0.3437
   3190 H          21.4778   18.6343    0.8829 H     798  UNL798      0.1146
   3191 H          22.9164   18.4469    1.6208 H     798  UNL798      0.1146
   3192 H          22.4724   19.9101    1.0631 H     798  UNL798      0.1146
   3193 N          22.0575   20.0196    3.5550 N.3   799  UNL799     -0.3437
   3194 H          21.5763   20.5831    4.2545 H     799  UNL799      0.1146
   3195 H          22.6723   20.6592    3.0537 H     799  UNL799      0.1146
   3196 H          22.6691   19.3906    4.0733 H     799  UNL799      0.1146
   3197 N          22.0200   20.0920    6.0351 N.3   800  UNL800     -0.3437
   3198 H          21.7128   20.7416    6.7576 H     800  UNL800      0.1146
   3199 H          22.7081   20.5964    5.4780 H     800  UNL800      0.1146
   3200 H          22.5343   19.3569    6.5184 H     800  UNL800      0.1146
   3201 N          22.0800   19.3664    8.3904 N.3   801  UNL801     -0.3437
   3202 H          21.5229   19.5172    9.2302 H     801  UNL801      0.1146
   3203 H          22.5967   20.2313    8.2370 H     801  UNL801      0.1146
   3204 H          22.7756   18.6638    8.6371 H     801  UNL801      0.1146
   3205 N          22.2478   20.3333   10.8929 N.3   802  UNL802     -0.3437
   3206 H          21.4926   20.7426   11.4412 H     802  UNL802      0.1146
   3207 H          23.1107   20.5791   11.3758 H     802  UNL802      0.1146
   3208 H          22.1497   19.3237   10.9895 H     802  UNL802      0.1146
   3209 N          22.0862   19.1406   13.8093 N.3   803  UNL803     -0.3437
   3210 H          21.5555   18.4945   13.2269 H     803  UNL803      0.1146
   3211 H          22.8726   18.6065   14.1764 H     803  UNL803      0.1146
   3212 H          22.4865   19.8284   13.1729 H     803  UNL803      0.1146
   3213 N          22.0054   20.1499   15.9159 N.3   804  UNL804     -0.3437
   3214 H          21.8051   20.6838   16.7604 H     804  UNL804      0.1146
   3215 H          22.6065   20.7424   15.3449 H     804  UNL804      0.1146
   3216 H          22.5838   19.3644   16.2107 H     804  UNL804      0.1146
   3217 N          21.9971   18.8727   18.4807 N.3   805  UNL805     -0.3437
   3218 H          21.8638   19.8783   18.5779 H     805  UNL805      0.1146
   3219 H          22.6715   18.7504   17.7267 H     805  UNL805      0.1146
   3220 H          22.4686   18.5685   19.3313 H     805  UNL805      0.1146
   3221 N          22.0305   19.9519   20.8416 N.3   806  UNL806     -0.3437
   3222 H          21.6799   20.1947   21.7670 H     806  UNL806      0.1146
   3223 H          22.6151   20.7335   20.5487 H     806  UNL806      0.1146
   3224 H          22.6625   19.1643   20.9783 H     806  UNL806      0.1146
   3225 N          22.5195   19.9002   24.5159 N.3   807  UNL807     -0.3437
   3226 H          22.2839   20.1787   23.5645 H     807  UNL807      0.1146
   3227 H          22.3877   20.7302   25.0923 H     807  UNL807      0.1146
   3228 H          21.7969   19.2416   24.8029 H     807  UNL807      0.1146
   3229 N          24.4902   -0.7192    1.3804 N.3   808  UNL808     -0.3437
   3230 H          23.9280   -1.5186    1.0918 H     808  UNL808      0.1146
   3231 H          25.1710   -1.0806    2.0470 H     808  UNL808      0.1146
   3232 H          25.0234   -0.4395    0.5583 H     808  UNL808      0.1146
   3233 N          24.3500    0.4183    3.2850 N.3   809  UNL809     -0.3437
   3234 H          25.1500   -0.0900    3.6592 H     809  UNL809      0.1146
   3235 H          24.0872    1.0946    4.0005 H     809  UNL809      0.1146
   3236 H          24.7054    0.9632    2.5006 H     809  UNL809      0.1146
   3237 N          25.0534    0.6922    5.8312 N.3   810  UNL810     -0.3437
   3238 H          25.7538    0.1732    6.3588 H     810  UNL810      0.1146
   3239 H          24.5171   -0.0043    5.3156 H     810  UNL810      0.1146
   3240 H          24.4145    1.0836    6.5219 H     810  UNL810      0.1146
   3241 N          25.0616    0.4588    8.6127 N.3   811  UNL811     -0.3437
   3242 H          24.3599    0.8126    9.2613 H     811  UNL811      0.1146
   3243 H          24.5448    0.0271    7.8478 H     811  UNL811      0.1146
   3244 H          25.5167    1.2797    8.2160 H     811  UNL811      0.1146
   3245 N          25.2067    0.2437   11.1447 N.3   812  UNL812     -0.3437
   3246 H          24.7546    0.9559   11.7162 H     812  UNL812      0.1146
   3247 H          25.8223    0.7451   10.5060 H     812  UNL812      0.1146
   3248 H          25.8175   -0.2753   11.7740 H     812  UNL812      0.1146
   3249 N          24.4539    0.5911   13.7639 N.3   813  UNL813     -0.3437
   3250 H          24.0122    0.1145   12.9789 H     813  UNL813      0.1146
   3251 H          25.1795   -0.0390   14.1028 H     813  UNL813      0.1146
   3252 H          24.9414    1.3932   13.3672 H     813  UNL813      0.1146
   3253 N          24.5089    0.5375   16.1397 N.3   814  UNL814     -0.3437
   3254 H          23.8861   -0.1108   15.6599 H     814  UNL814      0.1146
   3255 H          25.0287   -0.0206   16.8156 H     814  UNL814      0.1146
   3256 H          25.1888    0.8408   15.4439 H     814  UNL814      0.1146
   3257 N          24.4870    0.7711   18.6405 N.3   815  UNL815     -0.3437
   3258 H          23.9488   -0.0344   18.3243 H     815  UNL815      0.1146
   3259 H          25.4176    0.4186   18.8597 H     815  UNL815      0.1146
   3260 H          24.5991    1.3717   17.8250 H     815  UNL815      0.1146
   3261 N          22.9091    0.5863   20.8377 N.3   816  UNL816     -0.3437
   3262 H          22.7572    0.1855   21.7622 H     816  UNL816      0.1146
   3263 H          23.3686    1.4826   20.9922 H     816  UNL816      0.1146
   3264 H          23.6003   -0.0090   20.3836 H     816  UNL816      0.1146
   3265 N          24.8713   -0.9078   23.4766 N.3   817  UNL817     -0.3437
   3266 H          24.7469   -0.4149   24.3597 H     817  UNL817      0.1146
   3267 H          24.0999   -1.5708   23.4139 H     817  UNL817      0.1146
   3268 H          24.7088   -0.2179   22.7445 H     817  UNL817      0.1146
   3269 N          24.5358    3.3852   -0.4796 N.3   818  UNL818     -0.3437
   3270 H          23.8440    2.6737   -0.7110 H     818  UNL818      0.1146
   3271 H          25.2523    2.9122    0.0695 H     818  UNL818      0.1146
   3272 H          24.9804    3.6415   -1.3599 H     818  UNL818      0.1146
   3273 N          24.5356    3.2199    1.8359 N.3   819  UNL819     -0.3437
   3274 H          23.7380    2.9319    1.2708 H     819  UNL819      0.1146
   3275 H          25.1983    2.4466    1.8011 H     819  UNL819      0.1146
   3276 H          24.9743    3.9887    1.3311 H     819  UNL819      0.1146
   3277 N          24.7947    3.2406    4.2281 N.3   820  UNL820     -0.3437
   3278 H          24.6112    2.6306    3.4327 H     820  UNL820      0.1146
   3279 H          25.4208    2.7213    4.8418 H     820  UNL820      0.1146
   3280 H          25.3409    4.0201    3.8641 H     820  UNL820      0.1146
   3281 N          24.7280    3.2407    6.5633 N.3   821  UNL821     -0.3437
   3282 H          24.1729    2.6962    5.9046 H     821  UNL821      0.1146
   3283 H          25.5235    2.6546    6.8121 H     821  UNL821      0.1146
   3284 H          25.1098    4.0211    6.0308 H     821  UNL821      0.1146
   3285 N          24.4296    3.0666    8.9212 N.3   822  UNL822     -0.3437
   3286 H          24.1157    2.3736    8.2432 H     822  UNL822      0.1146
   3287 H          25.0865    2.5838    9.5327 H     822  UNL822      0.1146
   3288 H          24.9808    3.7438    8.3959 H     822  UNL822      0.1146
   3289 N          24.4539    3.0182   11.6424 N.3   823  UNL823     -0.3437
   3290 H          24.0122    3.4158   10.8147 H     823  UNL823      0.1146
   3291 H          25.1795    2.3903   11.2993 H     823  UNL823      0.1146
   3292 H          24.9414    3.7883   12.0980 H     823  UNL823      0.1146
   3293 N          24.3571    3.3785   14.5477 N.3   824  UNL824     -0.3437
   3294 H          24.4632    2.5247   15.0937 H     824  UNL824      0.1146
   3295 H          25.1922    3.9335   14.7290 H     824  UNL824      0.1146
   3296 H          24.4145    3.0958   13.5703 H     824  UNL824      0.1146
   3297 N          22.8034    2.8177   18.3370 N.3   825  UNL825     -0.3437
   3298 H          22.7126    2.6169   19.3319 H     825  UNL825      0.1146
   3299 H          21.9727    2.4271   17.8946 H     825  UNL825      0.1146
   3300 H          22.7207    3.8293   18.2459 H     825  UNL825      0.1146
   3301 N          24.5998    3.1500   20.7498 N.3   826  UNL826     -0.3437
   3302 H          24.0474    3.6721   21.4284 H     826  UNL826      0.1146
   3303 H          25.4210    3.7216   20.5566 H     826  UNL826      0.1146
   3304 H          24.9412    2.3249   21.2408 H     826  UNL826      0.1146
   3305 N          24.3791    1.9203   23.3213 N.3   827  UNL827     -0.3437
   3306 H          24.2925    1.6299   24.2942 H     827  UNL827      0.1146
   3307 H          24.2742    2.9339   23.3203 H     827  UNL827      0.1146
   3308 H          25.3467    1.7380   23.0589 H     827  UNL827      0.1146
   3309 N          24.6241    6.0956    1.4581 N.3   828  UNL828     -0.3437
   3310 H          23.8922    5.4257    1.2257 H     828  UNL828      0.1146
   3311 H          25.4015    5.5469    1.8228 H     828  UNL828      0.1146
   3312 H          24.9442    6.4810    0.5708 H     828  UNL828      0.1146
   3313 N          24.7428    6.0344    3.8707 N.3   829  UNL829     -0.3437
   3314 H          24.1343    5.4067    3.3472 H     829  UNL829      0.1146
   3315 H          25.2648    5.4448    4.5176 H     829  UNL829      0.1146
   3316 H          25.4244    6.3882    3.2009 H     829  UNL829      0.1146
   3317 N          24.4208    6.0116    6.3236 N.3   830  UNL830     -0.3437
   3318 H          23.9786    5.3718    5.6652 H     830  UNL830      0.1146
   3319 H          24.9003    5.4257    7.0057 H     830  UNL830      0.1146
   3320 H          25.1528    6.4907    5.8010 H     830  UNL830      0.1146
   3321 N          24.5682    5.9375    8.8266 N.3   831  UNL831     -0.3437
   3322 H          24.1710    5.1604    8.3006 H     831  UNL831      0.1146
   3323 H          25.5340    5.6788    9.0237 H     831  UNL831      0.1146
   3324 H          24.6145    6.7215    8.1773 H     831  UNL831      0.1146
   3325 N          24.4827    6.0200   11.1392 N.3   832  UNL832     -0.3437
   3326 H          24.0410    5.2870   10.5861 H     832  UNL832      0.1146
   3327 H          25.2083    5.5598   11.6871 H     832  UNL832      0.1146
   3328 H          24.9702    6.6186   10.4741 H     832  UNL832      0.1146
   3329 N          24.7753    5.9583   13.7334 N.3   833  UNL833     -0.3437
   3330 H          24.6242    5.0454   13.3065 H     833  UNL833      0.1146
   3331 H          25.5031    5.8238   14.4338 H     833  UNL833      0.1146
   3332 H          25.1884    6.5426   13.0079 H     833  UNL833      0.1146
   3333 N          24.4394    5.5103   16.2387 N.3   834  UNL834     -0.3437
   3334 H          24.0761    5.1086   15.3755 H     834  UNL834      0.1146
   3335 H          25.0210    4.7883   16.6615 H     834  UNL834      0.1146
   3336 H          25.0760    6.2541   15.9562 H     834  UNL834      0.1146
   3337 N          24.4321    5.9477   18.6509 N.3   835  UNL835     -0.3437
   3338 H          23.9539    5.1229   18.2913 H     835  UNL835      0.1146
   3339 H          25.2487    5.6022   19.1532 H     835  UNL835      0.1146
   3340 H          24.7922    6.4414   17.8355 H     835  UNL835      0.1146
   3341 N          24.7528    5.9080   21.5691 N.3   836  UNL836     -0.3437
   3342 H          24.7925    5.6400   22.5514 H     836  UNL836      0.1146
   3343 H          24.3626    5.1068   21.0749 H     836  UNL836      0.1146
   3344 H          24.0518    6.6449   21.5070 H     836  UNL836      0.1146
   3345 N          24.3490    5.9234   25.0527 N.3   837  UNL837     -0.3437
   3346 H          24.0125    5.9230   24.0909 H     837  UNL837      0.1146
   3347 H          24.7697    5.0075   25.2035 H     837  UNL837      0.1146
   3348 H          25.1166    6.5930   25.0814 H     837  UNL837      0.1146
   3349 N          24.4373    8.6382   -0.8019 N.3   838  UNL838     -0.3437
   3350 H          23.8934    8.1349   -1.5014 H     838  UNL838      0.1146
   3351 H          25.0281    7.9412   -0.3506 H     838  UNL838      0.1146
   3352 H          25.0681    9.2470   -1.3213 H     838  UNL838      0.1146
   3353 N          24.4913    8.4493    1.4405 N.3   839  UNL839     -0.3437
   3354 H          23.7350    8.7768    2.0396 H     839  UNL839      0.1146
   3355 H          25.0723    9.2646    1.2504 H     839  UNL839      0.1146
   3356 H          25.0580    7.8290    2.0173 H     839  UNL839      0.1146
   3357 N          24.4774    8.5936    3.9300 N.3   840  UNL840     -0.3437
   3358 H          23.9630    7.9422    3.3388 H     840  UNL840      0.1146
   3359 H          25.0571    8.0203    4.5413 H     840  UNL840      0.1146
   3360 H          25.1215    9.0852    3.3120 H     840  UNL840      0.1146
   3361 N          24.7057    8.6450    6.4304 N.3   841  UNL841     -0.3437
   3362 H          24.1660    7.9793    5.8790 H     841  UNL841      0.1146
   3363 H          25.4375    8.1030    6.8876 H     841  UNL841      0.1146
   3364 H          25.1800    9.2468    5.7586 H     841  UNL841      0.1146
   3365 N          24.7418    8.7399    8.6930 N.3   842  UNL842     -0.3437
   3366 H          24.1260    9.0698    9.4348 H     842  UNL842      0.1146
   3367 H          25.4204    9.4844    8.5393 H     842  UNL842      0.1146
   3368 H          25.2652    7.9601    9.0885 H     842  UNL842      0.1146
   3369 N          24.7050    8.4487   11.2881 N.3   843  UNL843     -0.3437
   3370 H          25.1735    7.9929   12.0698 H     843  UNL843      0.1146
   3371 H          24.3087    9.3100   11.6617 H     843  UNL843      0.1146
   3372 H          25.4431    8.7345   10.6462 H     843  UNL843      0.1146
   3373 N          24.4558    8.6273   13.7726 N.3   844  UNL844     -0.3437
   3374 H          23.8509    8.1297   13.1208 H     844  UNL844      0.1146
   3375 H          25.1061    7.9331   14.1381 H     844  UNL844      0.1146
   3376 H          25.0142    9.2648   13.2069 H     844  UNL844      0.1146
   3377 N          24.4206    8.5896   16.1830 N.3   845  UNL845     -0.3437
   3378 H          24.1540    7.8070   15.5873 H     845  UNL845      0.1146
   3379 H          25.0739    8.2116   16.8677 H     845  UNL845      0.1146
   3380 H          24.9641    9.2187   15.5938 H     845  UNL845      0.1146
   3381 N          24.5346    8.3127   18.7867 N.3   846  UNL846     -0.3437
   3382 H          23.9692    8.4449   17.9493 H     846  UNL846      0.1146
   3383 H          25.3431    7.7646   18.4962 H     846  UNL846      0.1146
   3384 H          24.8937    9.2344   19.0316 H     846  UNL846      0.1146
   3385 N          24.5483    8.5487   20.8318 N.3   847  UNL847     -0.3437
   3386 H          24.3626    8.5268   21.8335 H     847  UNL847      0.1146
   3387 H          25.1274    9.3717   20.6714 H     847  UNL847      0.1146
   3388 H          25.1438    7.7445   20.6389 H     847  UNL847      0.1146
   3389 N          24.8153    8.3738   23.7315 N.3   848  UNL848     -0.3437
   3390 H          25.3482    8.9162   23.0531 H     848  UNL848      0.1146
   3391 H          24.0193    8.9542   23.9922 H     848  UNL848      0.1146
   3392 H          24.4297    7.5826   23.2180 H     848  UNL848      0.1146
   3393 N          24.4537   11.3303   -0.2685 N.3   849  UNL849     -0.3437
   3394 H          24.7906   11.0026    0.6357 H     849  UNL849      0.1146
   3395 H          25.2838   11.5837   -0.8025 H     849  UNL849      0.1146
   3396 H          24.0588   10.5143   -0.7337 H     849  UNL849      0.1146
   3397 N          24.3405   11.1632    2.4765 N.3   850  UNL850     -0.3437
   3398 H          23.7242   10.8158    1.7432 H     850  UNL850      0.1146
   3399 H          25.0229   10.4250    2.6431 H     850  UNL850      0.1146
   3400 H          24.8593   11.9373    2.0641 H     850  UNL850      0.1146
   3401 N          24.3846   11.1036    4.6653 N.3   851  UNL851     -0.3437
   3402 H          23.9211   11.0545    5.5714 H     851  UNL851      0.1146
   3403 H          24.8946   11.9857    4.6581 H     851  UNL851      0.1146
   3404 H          25.0922   10.3702    4.6717 H     851  UNL851      0.1146
   3405 N          24.8387   11.1977    7.5411 N.3   852  UNL852     -0.3437
   3406 H          24.9304   10.4220    6.8868 H     852  UNL852      0.1146
   3407 H          24.2258   11.8751    7.0896 H     852  UNL852      0.1146
   3408 H          24.3169   10.8337    8.3371 H     852  UNL852      0.1146
   3409 N          24.3874   10.9565   10.6530 N.3   853  UNL853     -0.3437
   3410 H          24.7214   11.4598    9.8324 H     853  UNL853      0.1146
   3411 H          25.1904   10.4430   11.0137 H     853  UNL853      0.1146
   3412 H          24.1726   11.6676   11.3505 H     853  UNL853      0.1146
   3413 N          24.4155   11.2005   13.7129 N.3   854  UNL854     -0.3437
   3414 H          24.1576   10.6208   12.9155 H     854  UNL854      0.1146
   3415 H          25.0532   10.6381   14.2745 H     854  UNL854      0.1146
   3416 H          24.9735   11.9650   13.3355 H     854  UNL854      0.1146
   3417 N          24.4534   11.2224   16.1226 N.3   855  UNL855     -0.3437
   3418 H          23.8767   10.5892   15.5705 H     855  UNL855      0.1146
   3419 H          25.2116   10.6553   16.4995 H     855  UNL855      0.1146
   3420 H          24.8852   11.8617   15.4568 H     855  UNL855      0.1146
   3421 N          24.9188   11.0686   18.5990 N.3   856  UNL856     -0.3437
   3422 H          24.6511   11.8879   18.0554 H     856  UNL856      0.1146
   3423 H          24.2097   10.9685   19.3238 H     856  UNL856      0.1146
   3424 H          24.8009   10.2690   17.9784 H     856  UNL856      0.1146
   3425 N          24.5231   11.3393   21.2874 N.3   857  UNL857     -0.3437
   3426 H          23.8428   10.6721   20.9264 H     857  UNL857      0.1146
   3427 H          24.9788   10.8781   22.0736 H     857  UNL857      0.1146
   3428 H          25.2358   11.4325   20.5651 H     857  UNL857      0.1146
   3429 N          24.4500   11.2769   24.6078 N.3   858  UNL858     -0.3437
   3430 H          24.0187   10.5710   25.2028 H     858  UNL858      0.1146
   3431 H          25.1501   11.7410   25.1849 H     858  UNL858      0.1146
   3432 H          24.9681   10.7651   23.8951 H     858  UNL858      0.1146
   3433 N          24.5583   13.5502    1.4237 N.3   859  UNL859     -0.3437
   3434 H          25.0117   14.2892    0.8883 H     859  UNL859      0.1146
   3435 H          23.7484   13.9812    1.8673 H     859  UNL859      0.1146
   3436 H          24.1869   12.8941    0.7382 H     859  UNL859      0.1146
   3437 N          24.4143   14.1159    3.8080 N.3   860  UNL860     -0.3437
   3438 H          24.1469   13.2664    3.3128 H     860  UNL860      0.1146
   3439 H          25.0662   13.8240    4.5348 H     860  UNL860      0.1146
   3440 H          24.9595   14.6668    3.1465 H     860  UNL860      0.1146
   3441 N          24.6209   13.8016    6.4097 N.3   861  UNL861     -0.3437
   3442 H          24.2347   13.2496    5.6452 H     861  UNL861      0.1146
   3443 H          25.4367   13.2892    6.7419 H     861  UNL861      0.1146
   3444 H          24.9795   14.6561    5.9860 H     861  UNL861      0.1146
   3445 N          24.4015   13.8574    8.7589 N.3   862  UNL862     -0.3437
   3446 H          24.2678   13.0600    8.1387 H     862  UNL862      0.1146
   3447 H          25.0731   13.5558    9.4634 H     862  UNL862      0.1146
   3448 H          24.8765   14.5681    8.2042 H     862  UNL862      0.1146
   3449 N          24.4874   13.9105   11.3275 N.3   863  UNL863     -0.3437
   3450 H          23.9289   13.4443   10.6139 H     863  UNL863      0.1146
   3451 H          25.2406   13.2651   11.5608 H     863  UNL863      0.1146
   3452 H          24.9300   14.7030   10.8644 H     863  UNL863      0.1146
   3453 N          24.4668   13.9035   13.7304 N.3   864  UNL864     -0.3437
   3454 H          23.9610   13.2995   13.0840 H     864  UNL864      0.1146
   3455 H          25.0772   13.2902   14.2686 H     864  UNL864      0.1146
   3456 H          25.0819   14.4775   13.1554 H     864  UNL864      0.1146
   3457 N          24.6247   13.7115   16.2228 N.3   865  UNL865     -0.3437
   3458 H          24.1400   13.1991   15.4874 H     865  UNL865      0.1146
   3459 H          25.4809   13.1916   16.4099 H     865  UNL865      0.1146
   3460 H          24.9174   14.5934   15.8046 H     865  UNL865      0.1146
   3461 N          24.7025   14.0506   18.5124 N.3   866  UNL866     -0.3437
   3462 H          24.0797   13.4779   17.9445 H     866  UNL866      0.1146
   3463 H          25.2222   13.4013   19.1011 H     866  UNL866      0.1146
   3464 H          25.3823   14.4506   17.8673 H     866  UNL866      0.1146
   3465 N          24.8519   13.6457   20.8409 N.3   867  UNL867     -0.3437
   3466 H          25.0945   13.3303   21.7790 H     867  UNL867      0.1146
   3467 H          24.0147   13.1276   20.5781 H     867  UNL867      0.1146
   3468 H          24.5618   14.6177   20.9376 H     867  UNL867      0.1146
   3469 N          24.8320   13.7179   24.7241 N.3   868  UNL868     -0.3437
   3470 H          25.2341   14.6529   24.6740 H     868  UNL868      0.1146
   3471 H          23.9384   13.8217   25.2028 H     868  UNL868      0.1146
   3472 H          24.6081   13.4567   23.7650 H     868  UNL868      0.1146
   3473 N          24.4674   16.5634    1.5222 N.3   869  UNL869     -0.3437
   3474 H          23.9654   15.9319    0.8996 H     869  UNL869      0.1146
   3475 H          25.1578   15.9909    2.0059 H     869  UNL869      0.1146
   3476 H          24.9964   17.1911    0.9185 H     869  UNL869      0.1146
   3477 N          24.4539   16.4513    3.8901 N.3   870  UNL870     -0.3437
   3478 H          24.0122   15.8670    3.1817 H     870  UNL870      0.1146
   3479 H          25.1795   15.8763    4.3159 H     870  UNL870      0.1146
   3480 H          24.9414   17.1882    3.3824 H     870  UNL870      0.1146
   3481 N          24.4635   16.9455    6.3270 N.3   871  UNL871     -0.3437
   3482 H          24.0218   16.1916    5.8028 H     871  UNL871      0.1146
   3483 H          25.1891   16.5070    6.8923 H     871  UNL871      0.1146
   3484 H          24.9510   17.5178    5.6391 H     871  UNL871      0.1146
   3485 N          24.5928   16.5435    8.8384 N.3   872  UNL872     -0.3437
   3486 H          24.1343   16.0687    8.0620 H     872  UNL872      0.1146
   3487 H          25.3242   15.9118    9.1613 H     872  UNL872      0.1146
   3488 H          25.0732   17.3454    8.4329 H     872  UNL872      0.1146
   3489 N          24.4870   16.6769   11.2879 N.3   873  UNL873     -0.3437
   3490 H          23.9248   16.0717   10.6912 H     873  UNL873      0.1146
   3491 H          25.1678   16.0696   11.7419 H     873  UNL873      0.1146
   3492 H          25.0202   17.2751   10.6584 H     873  UNL873      0.1146
   3493 N          24.7328   16.4774   13.7830 N.3   874  UNL874     -0.3437
   3494 H          24.2441   15.9574   13.0556 H     874  UNL874      0.1146
   3495 H          25.3544   15.8092   14.2365 H     874  UNL874      0.1146
   3496 H          25.3373   17.1387   13.2977 H     874  UNL874      0.1146
   3497 N          24.3535   16.5344   16.2205 N.3   875  UNL875     -0.3437
   3498 H          23.9578   15.8888   15.5386 H     875  UNL875      0.1146
   3499 H          24.9760   15.9786   16.8053 H     875  UNL875      0.1146
   3500 H          24.9540   17.1666   15.6931 H     875  UNL875      0.1146
   3501 N          23.3468   16.5276   18.7734 N.3   876  UNL876     -0.3437
   3502 H          22.5766   16.3318   18.1356 H     876  UNL876      0.1146
   3503 H          23.7810   15.6279   18.9741 H     876  UNL876      0.1146
   3504 H          24.0312   17.0555   18.2335 H     876  UNL876      0.1146
   3505 N          24.6434   17.1098   21.1575 N.3   877  UNL877     -0.3437
   3506 H          24.1425   16.4685   20.5441 H     877  UNL877      0.1146
   3507 H          25.1297   16.5263   21.8369 H     877  UNL877      0.1146
   3508 H          25.3691   17.5376   20.5843 H     877  UNL877      0.1146
   3509 N          24.3245   16.5047   24.3561 N.3   878  UNL878     -0.3437
   3510 H          24.1089   15.8439   25.1013 H     878  UNL878      0.1146
   3511 H          24.9175   17.2187   24.7767 H     878  UNL878      0.1146
   3512 H          24.9160   16.0011   23.6966 H     878  UNL878      0.1146
   3513 N          24.6220   20.2532   -1.4442 N.3   879  UNL879     -0.3437
   3514 H          23.8160   20.6934   -1.0027 H     879  UNL879      0.1146
   3515 H          25.4408   20.7424   -1.0854 H     879  UNL879      0.1146
   3516 H          24.6699   19.3091   -1.0638 H     879  UNL879      0.1146
   3517 N          24.5710   20.6972    1.0654 N.3   880  UNL880     -0.3437
   3518 H          23.8625   20.6473    1.7961 H     880  UNL880      0.1146
   3519 H          25.4681   20.7420    1.5466 H     880  UNL880      0.1146
   3520 H          24.5508   19.7947    0.5925 H     880  UNL880      0.1146
   3521 N          24.4525   19.9600    3.4934 N.3   881  UNL881     -0.3437
   3522 H          23.9966   20.5227    4.2102 H     881  UNL881      0.1146
   3523 H          25.3623   20.3907    3.3347 H     881  UNL881      0.1146
   3524 H          24.6411   19.0558    3.9238 H     881  UNL881      0.1146
   3525 N          24.5626   19.9939    5.9835 N.3   882  UNL882     -0.3437
   3526 H          24.1747   20.7425    6.5558 H     882  UNL882      0.1146
   3527 H          25.4515   20.3436    5.6285 H     882  UNL882      0.1146
   3528 H          24.7949   19.2394    6.6278 H     882  UNL882      0.1146
   3529 N          24.3896   20.0735    8.6213 N.3   883  UNL883     -0.3437
   3530 H          24.0605   20.4808    9.4955 H     883  UNL883      0.1146
   3531 H          25.0534   20.7419    8.2325 H     883  UNL883      0.1146
   3532 H          24.9363   19.2539    8.8815 H     883  UNL883      0.1146
   3533 N          24.3900   19.1156   11.3048 N.3   884  UNL884     -0.3437
   3534 H          24.0588   18.5699   10.5105 H     884  UNL884      0.1146
   3535 H          25.0514   18.5188   11.7994 H     884  UNL884      0.1146
   3536 H          24.9395   19.8785   10.9118 H     884  UNL884      0.1146
   3537 N          24.7827   20.2798   13.4934 N.3   885  UNL885     -0.3437
   3538 H          25.0100   20.5751   12.5449 H     885  UNL885      0.1146
   3539 H          23.9058   20.7424   13.7290 H     885  UNL885      0.1146
   3540 H          24.5685   19.2854   13.4342 H     885  UNL885      0.1146
   3541 N          24.5445   19.9179   15.8274 N.3   886  UNL886     -0.3437
   3542 H          23.9896   20.4336   16.5090 H     886  UNL886      0.1146
   3543 H          25.3039   20.5403   15.5547 H     886  UNL886      0.1146
   3544 H          24.9794   19.1525   16.3407 H     886  UNL886      0.1146
   3545 N          24.5248   19.9099   18.2717 N.3   887  UNL887     -0.3437
   3546 H          23.8779   20.4256   18.8665 H     887  UNL887      0.1146
   3547 H          25.3155   20.5323   18.1107 H     887  UNL887      0.1146
   3548 H          24.8815   19.1445   18.8420 H     887  UNL887      0.1146
   3549 N          24.5670   20.2220   20.7788 N.3   888  UNL888     -0.3437
   3550 H          24.2769   20.7414   21.6061 H     888  UNL888      0.1146
   3551 H          25.4421   20.6458   20.4737 H     888  UNL888      0.1146
   3552 H          24.8065   19.2865   21.1042 H     888  UNL888      0.1146
   3553 N          24.5926   19.2742   23.4248 N.3   889  UNL889     -0.3437
   3554 H          25.4409   18.8845   23.0162 H     889  UNL889      0.1146
   3555 H          23.8167   18.7850   22.9809 H     889  UNL889      0.1146
   3556 H          24.5895   18.9791   24.4001 H     889  UNL889      0.1146
   3557 N          27.1397   -0.9294    1.3591 N.3   890  UNL890     -0.3437
   3558 H          26.5308   -1.5051    0.7795 H     890  UNL890      0.1146
   3559 H          27.4099   -1.5134    2.1492 H     890  UNL890      0.1146
   3560 H          27.9888   -0.7826    0.8151 H     890  UNL890      0.1146
   3561 N          26.9424    0.5309    3.6768 N.3   891  UNL891     -0.3437
   3562 H          26.3047    1.0549    3.0792 H     891  UNL891      0.1146
   3563 H          27.5136   -0.0346    3.0504 H     891  UNL891      0.1146
   3564 H          27.5723    1.2190    4.0868 H     891  UNL891      0.1146
   3565 N          27.7808    0.4585    6.0205 N.3   892  UNL892     -0.3437
   3566 H          28.2372   -0.1347    6.7121 H     892  UNL892      0.1146
   3567 H          27.1211   -0.1415    5.5273 H     892  UNL892      0.1146
   3568 H          27.2161    1.1223    6.5485 H     892  UNL892      0.1146
   3569 N          27.5892    0.7155    8.4554 N.3   893  UNL893     -0.3437
   3570 H          27.0742    1.3441    9.0702 H     893  UNL893      0.1146
   3571 H          28.2108    0.1791    9.0590 H     893  UNL893      0.1146
   3572 H          26.9051    0.0515    8.0957 H     893  UNL893      0.1146
   3573 N          27.8657   -0.9558   10.9121 N.3   894  UNL894     -0.3437
   3574 H          28.2566   -1.8943   10.8427 H     894  UNL894      0.1146
   3575 H          26.8534   -1.0731   10.9193 H     894  UNL894      0.1146
   3576 H          28.1155   -0.6153   11.8395 H     894  UNL894      0.1146
   3577 N          27.2129    0.3914   13.5323 N.3   895  UNL895     -0.3437
   3578 H          27.2944    0.4676   12.5195 H     895  UNL895      0.1146
   3579 H          28.1209    0.6609   13.9082 H     895  UNL895      0.1146
   3580 H          26.5627    1.1224   13.8176 H     895  UNL895      0.1146
   3581 N          26.9148    0.7589   16.1768 N.3   896  UNL896     -0.3437
   3582 H          26.3872   -0.0766   15.9279 H     896  UNL896      0.1146
   3583 H          27.8864    0.4631   16.2601 H     896  UNL896      0.1146
   3584 H          26.8758    1.3689   15.3615 H     896  UNL896      0.1146
   3585 N          27.2527    0.6420   18.4949 N.3   897  UNL897     -0.3437
   3586 H          27.1397    0.2634   19.4342 H     897  UNL897      0.1146
   3587 H          26.7937   -0.0182   17.8689 H     897  UNL897      0.1146
   3588 H          26.6925    1.4927   18.4657 H     897  UNL897      0.1146
   3589 N          25.5800    0.3982   20.8034 N.3   898  UNL898     -0.3437
   3590 H          24.9569    0.8290   21.4849 H     898  UNL898      0.1146
   3591 H          26.2422    1.1231   20.5307 H     898  UNL898      0.1146
   3592 H          26.1202   -0.2969   21.3167 H     898  UNL898      0.1146
   3593 N          27.1136    0.7641   24.1477 N.3   899  UNL899     -0.3437
   3594 H          27.8023    0.3548   24.7774 H     899  UNL899      0.1146
   3595 H          26.8699    0.0310   23.4832 H     899  UNL899      0.1146
   3596 H          26.2785    0.9227   24.7097 H     899  UNL899      0.1146
   3597 N          28.0184    1.7617    1.0506 N.3   900  UNL900     -0.3437
   3598 H          28.7349    1.0888    0.7819 H     900  UNL900      0.1146
   3599 H          27.2220    1.2118    1.3694 H     900  UNL900      0.1146
   3600 H          28.3776    2.2400    1.8756 H     900  UNL900      0.1146
   3601 N          27.3850    3.3971    3.5340 N.3   901  UNL901     -0.3437
   3602 H          26.8809    3.7719    4.3363 H     901  UNL901      0.1146
   3603 H          28.2106    2.9346    3.9121 H     901  UNL901      0.1146
   3604 H          26.7974    2.6563    3.1541 H     901  UNL901      0.1146
   3605 N          27.4238    3.4024    5.9996 N.3   902  UNL902     -0.3437
   3606 H          26.9134    3.7635    6.8043 H     902  UNL902      0.1146
   3607 H          28.2590    2.9550    6.3745 H     902  UNL902      0.1146
   3608 H          26.8506    2.6516    5.6172 H     902  UNL902      0.1146
   3609 N          27.0166    3.4047    8.4710 N.3   903  UNL903     -0.3437
   3610 H          26.4479    3.7029    9.2622 H     903  UNL903      0.1146
   3611 H          27.8915    3.0636    8.8668 H     903  UNL903      0.1146
   3612 H          26.5481    2.5885    8.0802 H     903  UNL903      0.1146
   3613 N          27.9828    2.0244   10.9710 N.3   904  UNL904     -0.3437
   3614 H          27.8323    1.1889   10.4073 H     904  UNL904      0.1146
   3615 H          27.1727    2.0990   11.5845 H     904  UNL904      0.1146
   3616 H          28.7754    1.8156   11.5765 H     904  UNL904      0.1146
   3617 N          26.8427    3.0338   13.9181 N.3   905  UNL905     -0.3437
   3618 H          26.6254    2.9362   12.9273 H     905  UNL905      0.1146
   3619 H          27.7691    2.6284   14.0438 H     905  UNL905      0.1146
   3620 H          26.9486    4.0334   14.0852 H     905  UNL905      0.1146
   3621 N          27.1736    3.3805   16.2730 N.3   906  UNL906     -0.3437
   3622 H          26.4074    2.9502   15.7569 H     906  UNL906      0.1146
   3623 H          27.7237    2.6111   16.6523 H     906  UNL906      0.1146
   3624 H          27.7642    3.8307   15.5753 H     906  UNL906      0.1146
   3625 N          24.8943    3.1213   18.6350 N.3   907  UNL907     -0.3437
   3626 H          24.7651    3.0008   17.6314 H     907  UNL907      0.1146
   3627 H          25.6089    2.4485   18.9090 H     907  UNL907      0.1146
   3628 H          25.3144    4.0419   18.7555 H     907  UNL907      0.1146
   3629 N          27.8074    3.0361   21.2486 N.3   908  UNL908     -0.3437
   3630 H          28.1148    3.7838   20.6283 H     908  UNL908      0.1146
   3631 H          27.0565    3.4306   21.8134 H     908  UNL908      0.1146
   3632 H          27.3706    2.3365   20.6501 H     908  UNL908      0.1146
   3633 N          27.0447    3.4344   24.2137 N.3   909  UNL909     -0.3437
   3634 H          27.4378    3.2182   25.1286 H     909  UNL909      0.1146
   3635 H          27.5002    2.8032   23.5560 H     909  UNL909      0.1146
   3636 H          26.0687    3.1440   24.2516 H     909  UNL909      0.1146
   3637 N          27.0535    4.0751    1.0019 N.3   910  UNL910     -0.3437
   3638 H          27.9357    4.3953    1.3990 H     910  UNL910      0.1146
   3639 H          26.5356    3.6536    1.7716 H     910  UNL910      0.1146
   3640 H          26.5394    4.9165    0.7449 H     910  UNL910      0.1146
   3641 N          27.3303    5.8145    3.8953 N.3   911  UNL911     -0.3437
   3642 H          26.7718    5.2508    3.2560 H     911  UNL911      0.1146
   3643 H          28.0835    5.2093    4.2188 H     911  UNL911      0.1146
   3644 H          27.7729    6.5324    3.3233 H     911  UNL911      0.1146
   3645 N          27.2827    6.0744    6.3513 N.3   912  UNL912     -0.3437
   3646 H          26.6868    5.3718    5.9159 H     912  UNL912      0.1146
   3647 H          28.0348    5.5608    6.8084 H     912  UNL912      0.1146
   3648 H          27.7178    6.5871    5.5856 H     912  UNL912      0.1146
   3649 N          27.7248    5.9669    8.8866 N.3   913  UNL913     -0.3437
   3650 H          27.0536    5.5282    8.2577 H     913  UNL913      0.1146
   3651 H          28.3467    5.2220    9.1977 H     913  UNL913      0.1146
   3652 H          28.2925    6.5827    8.3063 H     913  UNL913      0.1146
   3653 N          27.1538    4.0390   11.3042 N.3   914  UNL914     -0.3437
   3654 H          26.5168    3.3342   10.9355 H     914  UNL914      0.1146
   3655 H          27.6491    4.4188   10.4987 H     914  UNL914      0.1146
   3656 H          26.5654    4.7940   11.6537 H     914  UNL914      0.1146
   3657 N          27.6680    6.0162   13.6718 N.3   915  UNL915     -0.3437
   3658 H          27.0212    5.3756   13.2139 H     915  UNL915      0.1146
   3659 H          28.1621    5.4639   14.3713 H     915  UNL915      0.1146
   3660 H          28.3622    6.2648   12.9686 H     915  UNL915      0.1146
   3661 N          27.2594    5.9502   16.3109 N.3   916  UNL916     -0.3437
   3662 H          26.6543    5.3237   15.7822 H     916  UNL916      0.1146
   3663 H          28.1133    5.4258   16.4963 H     916  UNL916      0.1146
   3664 H          27.5219    6.6960   15.6681 H     916  UNL916      0.1146
   3665 N          27.4510    3.7543   18.3536 N.3   917  UNL917     -0.3437
   3666 H          27.0498    4.2277   19.1619 H     917  UNL917      0.1146
   3667 H          28.0207    4.4503   17.8747 H     917  UNL917      0.1146
   3668 H          28.1032    3.0658   18.7264 H     917  UNL917      0.1146
   3669 N          27.0910    5.5746   20.9026 N.3   918  UNL918     -0.3437
   3670 H          26.5655    6.4217   21.1137 H     918  UNL918      0.1146
   3671 H          27.8816    5.8696   20.3312 H     918  UNL918      0.1146
   3672 H          27.4861    5.2611   21.7881 H     918  UNL918      0.1146
   3673 N          27.1057    5.9138   24.2365 N.3   919  UNL919     -0.3437
   3674 H          26.7979    5.5549   25.1392 H     919  UNL919      0.1146
   3675 H          28.0098    5.4800   24.0552 H     919  UNL919      0.1146
   3676 H          26.4644    5.5255   23.5463 H     919  UNL919      0.1146
   3677 N          27.3205    6.7380    1.4930 N.3   920  UNL920     -0.3437
   3678 H          26.8082    7.0803    0.6813 H     920  UNL920      0.1146
   3679 H          28.1197    6.2244    1.1245 H     920  UNL920      0.1146
   3680 H          27.7042    7.5633    1.9514 H     920  UNL920      0.1146
   3681 N          27.0604    8.2176    3.9418 N.3   921  UNL921     -0.3437
   3682 H          27.8326    8.5243    3.3518 H     921  UNL921      0.1146
   3683 H          26.6522    9.0653    4.3332 H     921  UNL921      0.1146
   3684 H          26.3591    7.8342    3.3097 H     921  UNL921      0.1146
   3685 N          27.5053    8.6188    6.4078 N.3   922  UNL922     -0.3437
   3686 H          26.8642    8.1690    5.7558 H     922  UNL922      0.1146
   3687 H          28.0643    7.8697    6.8138 H     922  UNL922      0.1146
   3688 H          28.1455    9.1694    5.8374 H     922  UNL922      0.1146
   3689 N          27.2361    8.5734    8.8653 N.3   923  UNL923     -0.3437
   3690 H          26.7944    7.9273    8.2127 H     923  UNL923      0.1146
   3691 H          27.9617    8.0394    9.3414 H     923  UNL923      0.1146
   3692 H          27.7236    9.2612    8.2929 H     923  UNL923      0.1146
   3693 N          26.9482    6.7985   10.8677 N.3   924  UNL924     -0.3437
   3694 H          26.2194    6.9019   11.5723 H     924  UNL924      0.1146
   3695 H          27.4726    7.6722   10.8756 H     924  UNL924      0.1146
   3696 H          27.5840    6.0862   11.2237 H     924  UNL924      0.1146
   3697 N          27.1572    8.5302   13.6733 N.3   925  UNL925     -0.3437
   3698 H          26.9458    7.8668   12.9293 H     925  UNL925      0.1146
   3699 H          27.7242    8.0217   14.3503 H     925  UNL925      0.1146
   3700 H          27.7729    9.2290   13.2599 H     925  UNL925      0.1146
   3701 N          27.1169    8.7353   16.2002 N.3   926  UNL926     -0.3437
   3702 H          26.5657    8.1763   15.5505 H     926  UNL926      0.1146
   3703 H          27.5386    8.0747   16.8515 H     926  UNL926      0.1146
   3704 H          27.8862    9.1222   15.6553 H     926  UNL926      0.1146
   3705 N          26.8417    6.3615   18.5881 N.3   927  UNL927     -0.3437
   3706 H          26.4966    6.9066   17.7993 H     927  UNL927      0.1146
   3707 H          27.7892    6.0792   18.3413 H     927  UNL927      0.1146
   3708 H          26.9367    7.0171   19.3624 H     927  UNL927      0.1146
   3709 N          27.2166    8.3965   20.7950 N.3   928  UNL928     -0.3437
   3710 H          26.8314    8.7476   21.6706 H     928  UNL928      0.1146
   3711 H          27.8176    9.1367   20.4356 H     928  UNL928      0.1146
   3712 H          27.8372    7.6292   21.0488 H     928  UNL928      0.1146
   3713 N          27.1499    8.2711   24.7056 N.3   929  UNL929     -0.3437
   3714 H          27.7493    9.0647   24.4839 H     929  UNL929      0.1146
   3715 H          26.3476    8.6552   25.2027 H     929  UNL929      0.1146
   3716 H          26.7917    7.9319   23.8140 H     929  UNL929      0.1146
   3717 N          26.9350    9.2899    1.1794 N.3   930  UNL930     -0.3437
   3718 H          26.5424    9.5154    2.0922 H     930  UNL930      0.1146
   3719 H          26.6419   10.0396    0.5545 H     930  UNL930      0.1146
   3720 H          27.9449    9.3844    1.2769 H     930  UNL930      0.1146
   3721 N          27.2594   11.0938    4.0357 N.3   931  UNL931     -0.3437
   3722 H          26.5983   10.8088    3.3145 H     931  UNL931      0.1146
   3723 H          27.9681   10.3625    4.0720 H     931  UNL931      0.1146
   3724 H          27.7295   11.9225    3.6742 H     931  UNL931      0.1146
   3725 N          27.0224   10.9270    6.3627 N.3   932  UNL932     -0.3437
   3726 H          26.4195   10.5061    5.6572 H     932  UNL932      0.1146
   3727 H          27.8012   11.3434    5.8544 H     932  UNL932      0.1146
   3728 H          26.4947   11.7056    6.7548 H     932  UNL932      0.1146
   3729 N          27.0194   11.0852    8.4445 N.3   933  UNL933     -0.3437
   3730 H          26.5985   10.4992    9.1641 H     933  UNL933      0.1146
   3731 H          26.4937   11.9582    8.4502 H     933  UNL933      0.1146
   3732 H          27.9526   11.3172    8.7815 H     933  UNL933      0.1146
   3733 N          26.9737   11.0979   11.2332 N.3   934  UNL934     -0.3437
   3734 H          27.8888   11.4016   10.9036 H     934  UNL934      0.1146
   3735 H          26.2915   11.5635   10.6365 H     934  UNL934      0.1146
   3736 H          26.9102   10.1055   11.0109 H     934  UNL934      0.1146
   3737 N          26.8329   11.1375   13.7273 N.3   935  UNL935     -0.3437
   3738 H          26.3162   10.5517   13.0730 H     935  UNL935      0.1146
   3739 H          27.4116   10.5030   14.2758 H     935  UNL935      0.1146
   3740 H          27.4779   11.6882   13.1623 H     935  UNL935      0.1146
   3741 N          27.2430   11.2981   16.2581 N.3   936  UNL936     -0.3437
   3742 H          26.7417   10.6420   15.6610 H     936  UNL936      0.1146
   3743 H          27.8433   10.7318   16.8558 H     936  UNL936      0.1146
   3744 H          27.8682   11.8166   15.6427 H     936  UNL936      0.1146
   3745 N          26.8079    9.5719   18.3014 N.3   937  UNL937     -0.3437
   3746 H          26.5728   10.0610   19.1640 H     937  UNL937      0.1146
   3747 H          27.7980    9.7496   18.1387 H     937  UNL937      0.1146
   3748 H          26.7319    8.5779   18.5125 H     937  UNL937      0.1146
   3749 N          26.9809   11.1233   21.3177 N.3   938  UNL938     -0.3437
   3750 H          26.4643   10.2821   21.0649 H     938  UNL938      0.1146
   3751 H          27.9536   10.9388   21.0765 H     938  UNL938      0.1146
   3752 H          26.6655   11.8499   20.6766 H     938  UNL938      0.1146
   3753 N          27.4116   10.9198   24.8145 N.3   939  UNL939     -0.3437
   3754 H          27.3187   11.8573   25.2029 H     939  UNL939      0.1146
   3755 H          26.6334   10.3810   25.1921 H     939  UNL939      0.1146
   3756 H          27.2318   11.0105   23.8156 H     939  UNL939      0.1146
   3757 N          26.7577   12.3643    1.4617 N.3   940  UNL940     -0.3437
   3758 H          26.8203   13.3451    1.1925 H     940  UNL940      0.1146
   3759 H          26.6515   11.8410    0.5937 H     940  UNL940      0.1146
   3760 H          27.6748   12.1149    1.8294 H     940  UNL940      0.1146
   3761 N          26.8627   13.9127    3.7934 N.3   941  UNL941     -0.3437
   3762 H          26.3572   13.0338    3.8961 H     941  UNL941      0.1146
   3763 H          27.7477   13.7865    4.2825 H     941  UNL941      0.1146
   3764 H          27.0966   13.9883    2.8045 H     941  UNL941      0.1146
   3765 N          27.4265   13.5329    6.3607 N.3   942  UNL942     -0.3437
   3766 H          26.7902   13.9646    5.6920 H     942  UNL942      0.1146
   3767 H          28.0284   12.9156    5.8177 H     942  UNL942      0.1146
   3768 H          28.0270   14.2825    6.7012 H     942  UNL942      0.1146
   3769 N          27.3671   13.8186    8.8752 N.3   943  UNL943     -0.3437
   3770 H          26.6582   13.4490    8.2434 H     943  UNL943      0.1146
   3771 H          28.0292   13.0595    9.0295 H     943  UNL943      0.1146
   3772 H          27.8720   14.5285    8.3465 H     943  UNL943      0.1146
   3773 N          27.3360   13.8211   11.3042 N.3   944  UNL944     -0.3437
   3774 H          26.7164   13.4374   10.5920 H     944  UNL944      0.1146
   3775 H          27.8670   13.0318   11.6693 H     944  UNL944      0.1146
   3776 H          28.0071   14.4053   10.8075 H     944  UNL944      0.1146
   3777 N          27.1768   13.7869   13.3450 N.3   945  UNL945     -0.3437
   3778 H          27.8098   13.1892   13.8747 H     945  UNL945      0.1146
   3779 H          26.4382   13.1763   12.9984 H     945  UNL945      0.1146
   3780 H          26.7354   14.4024   14.0267 H     945  UNL945      0.1146
   3781 N          27.3341   13.8827   16.1985 N.3   946  UNL946     -0.3437
   3782 H          27.0634   13.1973   15.4947 H     946  UNL946      0.1146
   3783 H          27.9544   13.3939   16.8425 H     946  UNL946      0.1146
   3784 H          27.9139   14.5674   15.7154 H     946  UNL946      0.1146
   3785 N          26.9799   12.4050   18.6969 N.3   947  UNL947     -0.3437
   3786 H          26.3543   12.6297   17.9245 H     947  UNL947      0.1146
   3787 H          27.5791   11.6515   18.3629 H     947  UNL947      0.1146
   3788 H          27.5862   13.2158   18.8122 H     947  UNL947      0.1146
   3789 N          27.2239   13.4998   21.1442 N.3   948  UNL948     -0.3437
   3790 H          26.7673   13.9303   20.3414 H     948  UNL948      0.1146
   3791 H          28.0460   13.0225   20.7773 H     948  UNL948      0.1146
   3792 H          27.5760   14.2686   21.7128 H     948  UNL948      0.1146
   3793 N          27.3282   13.6222   23.8367 N.3   949  UNL949     -0.3437
   3794 H          26.6608   12.8742   23.6543 H     949  UNL949      0.1146
   3795 H          26.8912   14.4777   23.4966 H     949  UNL949      0.1146
   3796 H          27.3760   13.7151   24.8503 H     949  UNL949      0.1146
   3797 N          27.3566   16.5194    1.3645 N.3   950  UNL950     -0.3437
   3798 H          27.1808   15.6094    0.9410 H     950  UNL950      0.1146
   3799 H          28.1262   16.3811    2.0180 H     950  UNL950      0.1146
   3800 H          27.7237   17.1097    0.6194 H     950  UNL950      0.1146
   3801 N          27.1494   16.3006    3.9797 N.3   951  UNL951     -0.3437
   3802 H          26.7099   15.8309    3.1893 H     951  UNL951      0.1146
   3803 H          28.0621   15.8621    4.0949 H     951  UNL951      0.1146
   3804 H          27.3331   17.2547    3.6726 H     951  UNL951      0.1146
   3805 N          27.1239   16.4112    6.0557 N.3   952  UNL952     -0.3437
   3806 H          27.8498   16.0606    6.6790 H     952  UNL952      0.1146
   3807 H          26.4625   15.6453    5.9360 H     952  UNL952      0.1146
   3808 H          26.6280   17.1313    6.5791 H     952  UNL952      0.1146
   3809 N          27.4265   16.8933    8.4762 N.3   953  UNL953     -0.3437
   3810 H          28.0052   16.3337    9.1011 H     953  UNL953      0.1146
   3811 H          26.6699   16.2823    8.1718 H     953  UNL953      0.1146
   3812 H          26.9932   17.6078    9.0593 H     953  UNL953      0.1146
   3813 N          27.1293   16.4462   10.8538 N.3   954  UNL954     -0.3437
   3814 H          27.8417   16.0075   11.4355 H     954  UNL954      0.1146
   3815 H          26.4694   15.7079   10.6132 H     954  UNL954      0.1146
   3816 H          26.6238   17.0868   11.4640 H     954  UNL954      0.1146
   3817 N          27.5299   16.2305   13.5967 N.3   955  UNL955     -0.3437
   3818 H          28.0656   16.8776   13.0199 H     955  UNL955      0.1146
   3819 H          26.9615   16.8088   14.2138 H     955  UNL955      0.1146
   3820 H          26.8771   15.7668   12.9664 H     955  UNL955      0.1146
   3821 N          27.3833   16.7300   16.1603 N.3   956  UNL956     -0.3437
   3822 H          26.8111   15.9986   15.7409 H     956  UNL956      0.1146
   3823 H          27.7918   16.3206   16.9993 H     956  UNL956      0.1146
   3824 H          28.1583   16.8839   15.5169 H     956  UNL956      0.1146
   3825 N          26.3918   16.0885   18.3231 N.3   957  UNL957     -0.3437
   3826 H          25.8249   16.1301   19.1688 H     957  UNL957      0.1146
   3827 H          27.1227   16.7888   18.4401 H     957  UNL957      0.1146
   3828 H          26.8625   15.1850   18.3446 H     957  UNL957      0.1146
   3829 N          27.2092   16.2307   21.0711 N.3   958  UNL958     -0.3437
   3830 H          27.4496   16.9437   20.3840 H     958  UNL958      0.1146
   3831 H          26.7729   16.7251   21.8481 H     958  UNL958      0.1146
   3832 H          26.4725   15.6688   20.6468 H     958  UNL958      0.1146
   3833 N          26.8797   16.3990   24.5408 N.3   959  UNL959     -0.3437
   3834 H          26.4005   15.7918   25.2041 H     959  UNL959      0.1146
   3835 H          26.9520   17.3087   24.9943 H     959  UNL959      0.1146
   3836 H          27.8321   16.0433   24.4716 H     959  UNL959      0.1146
   3837 N          26.8141   19.0575    1.4851 N.3   960  UNL960     -0.3437
   3838 H          26.4263   18.5883    0.6679 H     960  UNL960      0.1146
   3839 H          27.6139   18.4977    1.7772 H     960  UNL960      0.1146
   3840 H          27.1971   19.9393    1.1472 H     960  UNL960      0.1146
   3841 N          27.2874   19.9771    3.8462 N.3   961  UNL961     -0.3437
   3842 H          27.2980   20.4048    2.9214 H     961  UNL961      0.1146
   3843 H          26.7211   20.5889    4.4322 H     961  UNL961      0.1146
   3844 H          26.7578   19.1119    3.7495 H     961  UNL961      0.1146
   3845 N          27.2069   19.0572    6.0492 N.3   962  UNL962     -0.3437
   3846 H          27.1067   18.5980    6.9534 H     962  UNL962      0.1146
   3847 H          26.4800   18.6644    5.4528 H     962  UNL962      0.1146
   3848 H          26.9506   20.0319    6.1994 H     962  UNL962      0.1146
   3849 N          27.2328   20.1660    8.4037 N.3   963  UNL963     -0.3437
   3850 H          26.7424   20.7415    9.0868 H     963  UNL963      0.1146
   3851 H          28.1701   20.5583    8.3271 H     963  UNL963      0.1146
   3852 H          27.3460   19.2507    8.8371 H     963  UNL963      0.1146
   3853 N          27.5592   20.1345   11.1918 N.3   964  UNL964     -0.3437
   3854 H          26.9076   20.7354   11.6944 H     964  UNL964      0.1146
   3855 H          28.1685   19.7268   11.8996 H     964  UNL964      0.1146
   3856 H          27.0034   19.3644   10.8225 H     964  UNL964      0.1146
   3857 N          26.7358   18.9652   13.7718 N.3   965  UNL965     -0.3437
   3858 H          26.6134   18.4771   12.8857 H     965  UNL965      0.1146
   3859 H          27.5745   18.5715   14.1958 H     965  UNL965      0.1146
   3860 H          26.9677   19.9282   13.5323 H     965  UNL965      0.1146
   3861 N          27.2508   20.1881   16.1683 N.3   966  UNL966     -0.3437
   3862 H          27.2000   20.7413   15.3141 H     966  UNL966      0.1146
   3863 H          26.6026   20.6229   16.8235 H     966  UNL966      0.1146
   3864 H          26.8508   19.2794   15.9388 H     966  UNL966      0.1146
   3865 N          27.2109   18.8590   18.3437 N.3   967  UNL967     -0.3437
   3866 H          27.3592   18.3681   19.2243 H     967  UNL967      0.1146
   3867 H          26.3764   18.4465   17.9293 H     967  UNL967      0.1146
   3868 H          26.9576   19.8139   18.5937 H     967  UNL967      0.1146
   3869 N          27.2689   19.9677   21.1328 N.3   968  UNL968     -0.3437
   3870 H          27.4122   20.5221   20.2900 H     968  UNL968      0.1146
   3871 H          26.6244   20.5016   21.7141 H     968  UNL968      0.1146
   3872 H          26.7587   19.1361   20.8387 H     968  UNL968      0.1146
   3873 N          26.8573   19.9803   24.2142 N.3   969  UNL969     -0.3437
   3874 H          26.1500   20.2163   24.9087 H     969  UNL969      0.1146
   3875 H          27.5610   20.7154   24.2689 H     969  UNL969      0.1146
   3876 H          27.3103   19.1323   24.5517 H     969  UNL969      0.1146
   3877 N          30.2020   -0.9825    1.5572 N.3   970  UNL970     -0.3437
   3878 H          29.5384   -1.5212    1.0024 H     970  UNL970      0.1146
   3879 H          30.9673   -1.6188    1.7757 H     970  UNL970      0.1146
   3880 H          30.5906   -0.2817    0.9277 H     970  UNL970      0.1146
   3881 N          29.4774    0.7700    3.7465 N.3   971  UNL971     -0.3437
   3882 H          28.9035   -0.0451    3.9579 H     971  UNL971      0.1146
   3883 H          30.3273    0.6661    4.2990 H     971  UNL971      0.1146
   3884 H          29.7612    0.6688    2.7731 H     971  UNL971      0.1146
   3885 N          30.3453    0.7612    6.3739 N.3   972  UNL972     -0.3437
   3886 H          29.6742    0.1620    5.8955 H     972  UNL972      0.1146
   3887 H          30.9672    0.1353    6.8837 H     972  UNL972      0.1146
   3888 H          30.9131    1.1868    5.6425 H     972  UNL972      0.1146
   3889 N          30.2168   -1.0041    8.4716 N.3   973  UNL973     -0.3437
   3890 H          30.9680   -1.6912    8.4266 H     973  UNL973      0.1146
   3891 H          29.3529   -1.5219    8.3173 H     973  UNL973      0.1146
   3892 H          30.1846   -0.6861    9.4392 H     973  UNL973      0.1146
   3893 N          30.1309    0.2317   11.2387 N.3   974  UNL974     -0.3437
   3894 H          30.9685    0.6519   10.8385 H     974  UNL974      0.1146
   3895 H          29.8990    0.7925   12.0573 H     974  UNL974      0.1146
   3896 H          29.3845    0.3965   10.5648 H     974  UNL974      0.1146
   3897 N          30.7727   -0.6587   13.3797 N.3   975  UNL975     -0.3437
   3898 H          29.7735   -0.7244   13.1907 H     975  UNL975      0.1146
   3899 H          30.9683    0.3321   13.5156 H     975  UNL975      0.1146
   3900 H          30.9166   -1.1003   14.2867 H     975  UNL975      0.1146
   3901 N          30.3529    0.7460   16.1820 N.3   976  UNL976     -0.3437
   3902 H          29.9028    0.1240   15.5119 H     976  UNL976      0.1146
   3903 H          30.9684    0.1577   16.7418 H     976  UNL976      0.1146
   3904 H          30.9637    1.3521   15.6362 H     976  UNL976      0.1146
   3905 N          30.1909    0.7620   18.6833 N.3   977  UNL977     -0.3437
   3906 H          29.6187    0.2734   17.9961 H     977  UNL977      0.1146
   3907 H          30.5995    0.0389   19.2737 H     977  UNL977      0.1146
   3908 H          30.9660    1.1711   18.1634 H     977  UNL977      0.1146
   3909 N          28.5134   -0.4783   20.9507 N.3   978  UNL978     -0.3437
   3910 H          28.1919   -0.0355   21.8103 H     978  UNL978      0.1146
   3911 H          28.9096    0.2682   20.3814 H     978  UNL978      0.1146
   3912 H          29.2961   -1.0738   21.2172 H     978  UNL978      0.1146
   3913 N          30.4552    0.4339   22.1708 N.3   979  UNL979     -0.3437
   3914 H          30.5918    0.7425   23.1323 H     979  UNL979      0.1146
   3915 H          30.9479    1.1081   21.5867 H     979  UNL979      0.1146
   3916 H          30.9676   -0.4423   22.0814 H     979  UNL979      0.1146
   3917 N          30.4363    3.1446   -1.5280 N.3   980  UNL980     -0.3437
   3918 H          29.4959    3.1236   -1.1361 H     980  UNL980      0.1146
   3919 H          30.8343    4.0421   -1.2551 H     980  UNL980      0.1146
   3920 H          30.9671    2.4367   -1.0225 H     980  UNL980      0.1146
   3921 N          30.7162    3.2721    1.4521 N.3   981  UNL981     -0.3437
   3922 H          29.7073    3.3877    1.5364 H     981  UNL981      0.1146
   3923 H          30.8793    2.2684    1.3851 H     981  UNL981      0.1146
   3924 H          30.9683    3.6588    0.5437 H     981  UNL981      0.1146
   3925 N          30.3058    3.2305    3.9194 N.3   982  UNL982     -0.3437
   3926 H          29.6644    2.9048    3.1976 H     982  UNL982      0.1146
   3927 H          30.8405    2.4130    4.2097 H     982  UNL982      0.1146
   3928 H          30.9677    3.8467    3.4498 H     982  UNL982      0.1146
   3929 N          30.1190    3.4842    6.2339 N.3   983  UNL983     -0.3437
   3930 H          29.7226    2.6782    5.7526 H     983  UNL983      0.1146
   3931 H          30.4569    3.1376    7.1306 H     983  UNL983      0.1146
   3932 H          30.9486    3.7477    5.7041 H     983  UNL983      0.1146
   3933 N          30.3868    1.6973    8.4849 N.3   984  UNL984     -0.3437
   3934 H          29.6304    2.1074    9.0308 H     984  UNL984      0.1146
   3935 H          30.9677    2.4769    8.1798 H     984  UNL984      0.1146
   3936 H          30.9534    1.1662    9.1447 H     984  UNL984      0.1146
   3937 N          30.6844    3.3141   11.2425 N.3   985  UNL985     -0.3437
   3938 H          29.7318    3.3416   11.6030 H     985  UNL985      0.1146
   3939 H          30.9679    2.3357   11.2723 H     985  UNL985      0.1146
   3940 H          30.6182    3.5572   10.2551 H     985  UNL985      0.1146
   3941 N          30.3965    2.8778   13.6998 N.3   986  UNL986     -0.3437
   3942 H          29.5000    3.3188   13.9004 H     986  UNL986      0.1146
   3943 H          30.2107    2.1767   12.9841 H     986  UNL986      0.1146
   3944 H          30.9671    3.5929   13.2510 H     986  UNL986      0.1146
   3945 N          30.1233    3.3886   16.1931 N.3   987  UNL987     -0.3437
   3946 H          29.4997    2.6848   15.8006 H     987  UNL987      0.1146
   3947 H          30.8561    2.8745   16.6801 H     987  UNL987      0.1146
   3948 H          30.5760    3.8375   15.3981 H     987  UNL987      0.1146
   3949 N          30.1988    3.3286   18.6926 N.3   988  UNL988     -0.3437
   3950 H          29.6404    2.6789   18.1408 H     988  UNL988      0.1146
   3951 H          30.9521    2.7761   19.0996 H     988  UNL988      0.1146
   3952 H          30.6414    3.9569   18.0235 H     988  UNL988      0.1146
   3953 N          30.2227    3.3903   21.2595 N.3   989  UNL989     -0.3437
   3954 H          29.7614    2.7367   20.6284 H     989  UNL989      0.1146
   3955 H          30.6858    2.8198   21.9655 H     989  UNL989      0.1146
   3956 H          30.9677    3.8258   20.7175 H     989  UNL989      0.1146
   3957 N          30.1524    3.1252   24.2733 N.3   990  UNL990     -0.3437
   3958 H          29.7745    3.7098   25.0175 H     990  UNL990      0.1146
   3959 H          30.9645    3.6225   23.9105 H     990  UNL990      0.1146
   3960 H          30.5156    2.2896   24.7295 H     990  UNL990      0.1146
   3961 N          29.5086    5.9984   -1.4446 N.3   991  UNL991     -0.3437
   3962 H          29.1063    6.4475   -0.6231 H     991  UNL991      0.1146
   3963 H          30.5165    5.9891   -1.2943 H     991  UNL991      0.1146
   3964 H          29.2102    5.0248   -1.4069 H     991  UNL991      0.1146
   3965 N          30.3344    5.9674    0.9245 N.3   992  UNL992     -0.3437
   3966 H          30.9677    6.5955    1.4173 H     992  UNL992      0.1146
   3967 H          30.9110    5.4495    0.2629 H     992  UNL992      0.1146
   3968 H          30.0196    5.2874    1.6150 H     992  UNL992      0.1146
   3969 N          30.0832    5.9512    3.8880 N.3   993  UNL993     -0.3437
   3970 H          29.5778    5.1101    3.6133 H     993  UNL993      0.1146
   3971 H          30.9683    5.6318    4.2793 H     993  UNL993      0.1146
   3972 H          30.3171    6.4339    3.0216 H     993  UNL993      0.1146
   3973 N          30.2164    5.9807    6.4521 N.3   994  UNL994     -0.3437
   3974 H          29.5980    5.4724    5.8216 H     994  UNL994      0.1146
   3975 H          30.8721    5.2919    6.8182 H     994  UNL994      0.1146
   3976 H          30.7653    6.6059    5.8637 H     994  UNL994      0.1146
   3977 N          30.2679    6.0965    8.6924 N.3   995  UNL995     -0.3437
   3978 H          29.9270    5.2327    8.2730 H     995  UNL995      0.1146
   3979 H          30.7759    5.8200    9.5314 H     995  UNL995      0.1146
   3980 H          30.9673    6.4642    8.0490 H     995  UNL995      0.1146
   3981 N          29.5110    5.1756   11.1010 N.3   996  UNL996     -0.3437
   3982 H          29.0744    6.0370   10.7759 H     996  UNL996      0.1146
   3983 H          30.5162    5.3241   11.0248 H     996  UNL996      0.1146
   3984 H          29.3104    5.1182   12.0985 H     996  UNL996      0.1146
   3985 N          30.3344    5.9210   13.5076 N.3   997  UNL997     -0.3437
   3986 H          30.9677    6.5491   14.0004 H     997  UNL997      0.1146
   3987 H          30.9110    5.4031   12.8459 H     997  UNL997      0.1146
   3988 H          30.0196    5.2410   14.1981 H     997  UNL997      0.1146
   3989 N          30.3060    6.0591   16.2583 N.3   998  UNL998     -0.3437
   3990 H          29.5972    5.6026   15.6860 H     998  UNL998      0.1146
   3991 H          30.9682    5.3300   16.5199 H     998  UNL998      0.1146
   3992 H          30.8109    6.6857   15.6332 H     998  UNL998      0.1146
   3993 N          30.1884    6.0089   18.7074 N.3   999  UNL999     -0.3437
   3994 H          29.5517    5.5348   18.0685 H     999  UNL999      0.1146
   3995 H          30.6976    5.2727   19.1943 H     999  UNL999      0.1146
   3996 H          30.8734    6.4833   18.1208 H     999  UNL999      0.1146
   3997 N          30.3046    6.0406   21.2477 N.3   1000  UNL1000    -0.3437
   3998 H          29.5070    5.5424   20.8551 H     1000  UNL1000     0.1146
   3999 H          30.9673    5.3237   21.5398 H     1000  UNL1000     0.1146
   4000 H          30.7434    6.5274   20.4674 H     1000  UNL1000     0.1146
   4001 N          29.9877    6.0114   23.5465 N.3   1001  UNL1001    -0.3437
   4002 H          29.7074    5.2128   22.9790 H     1001  UNL1001     0.1146
   4003 H          30.3676    5.6237   24.4089 H     1001  UNL1001     0.1146
   4004 H          30.7747    6.4390   23.0603 H     1001  UNL1001     0.1146
   4005 N          30.4239    8.3836   -1.3642 N.3   1002  UNL1002    -0.3437
   4006 H          30.7531    7.6320   -0.7601 H     1002  UNL1002     0.1146
   4007 H          29.4669    8.5789   -1.0736 H     1002  UNL1002     0.1146
   4008 H          30.9680    9.2069   -1.1102 H     1002  UNL1002     0.1146
   4009 N          30.1794    8.6344    1.3701 N.3   1003  UNL1003    -0.3437
   4010 H          29.5807    7.8403    1.1479 H     1003  UNL1003     0.1146
   4011 H          30.9474    8.2604    1.9257 H     1003  UNL1003     0.1146
   4012 H          30.5908    8.9318    0.4865 H     1003  UNL1003     0.1146
   4013 N          30.1569    8.4787    3.9698 N.3   1004  UNL1004    -0.3437
   4014 H          29.5901    8.0251    3.2547 H     1004  UNL1004     0.1146
   4015 H          30.8964    7.8175    4.2033 H     1004  UNL1004     0.1146
   4016 H          30.6165    9.2625    3.5086 H     1004  UNL1004     0.1146
   4017 N          30.1925    8.6529    6.2369 N.3   1005  UNL1005    -0.3437
   4018 H          29.6203    7.9892    5.7168 H     1005  UNL1005     0.1146
   4019 H          30.6011    8.1273    7.0084 H     1005  UNL1005     0.1146
   4020 H          30.9676    8.8975    5.6222 H     1005  UNL1005     0.1146
   4021 N          29.7529    8.7554    8.6030 N.3   1006  UNL1006    -0.3437
   4022 H          29.3518    7.9862    8.0683 H     1006  UNL1006     0.1146
   4023 H          29.4788    8.5970    9.5717 H     1006  UNL1006     0.1146
   4024 H          30.7627    8.6227    8.5717 H     1006  UNL1006     0.1146
   4025 N          30.4609    7.6527   11.1579 N.3   1007  UNL1007    -0.3437
   4026 H          30.6404    7.6236   10.1552 H     1007  UNL1007     0.1146
   4027 H          29.4716    7.4367   11.2724 H     1007  UNL1007     0.1146
   4028 H          30.9685    6.8644   11.5570 H     1007  UNL1007     0.1146
   4029 N          29.7829    8.2336   13.6014 N.3   1008  UNL1008    -0.3437
   4030 H          29.4897    9.1077   14.0354 H     1008  UNL1008     0.1146
   4031 H          29.1860    8.1114   12.7846 H     1008  UNL1008     0.1146
   4032 H          30.7214    8.3999   13.2410 H     1008  UNL1008     0.1146
   4033 N          30.2073    8.6498   16.1587 N.3   1009  UNL1009    -0.3437
   4034 H          29.5009    7.9498   15.9366 H     1009  UNL1009     0.1146
   4035 H          30.9137    8.1694   16.7143 H     1009  UNL1009     0.1146
   4036 H          30.6572    8.8851   15.2751 H     1009  UNL1009     0.1146
   4037 N          29.4374    8.3502   18.6392 N.3   1010  UNL1010    -0.3437
   4038 H          29.0302    7.6706   17.9984 H     1010  UNL1010     0.1146
   4039 H          30.4057    8.0632   18.7750 H     1010  UNL1010     0.1146
   4040 H          29.4747    9.2309   18.1280 H     1010  UNL1010     0.1146
   4041 N          29.9829    8.7403   21.0899 N.3   1011  UNL1011    -0.3437
   4042 H          29.4107    8.0088   20.6704 H     1011  UNL1011     0.1146
   4043 H          30.3915    8.3308   21.9288 H     1011  UNL1011     0.1146
   4044 H          30.7580    8.8942   20.4465 H     1011  UNL1011     0.1146
   4045 N          30.0086    8.5613   24.4901 N.3   1012  UNL1012    -0.3437
   4046 H          29.4707    8.5091   23.6262 H     1012  UNL1012     0.1146
   4047 H          30.2850    7.6048   24.7071 H     1012  UNL1012     0.1146
   4048 H          30.8684    9.0557   24.2561 H     1012  UNL1012     0.1146
   4049 N          29.6160   10.8636    1.1180 N.3   1013  UNL1013    -0.3437
   4050 H          29.0149   11.4060    0.4991 H     1013  UNL1013     0.1146
   4051 H          30.4086   11.4652    1.3378 H     1013  UNL1013     0.1146
   4052 H          29.0971   10.7537    1.9881 H     1013  UNL1013     0.1146
   4053 N          30.4043   11.3193    3.6002 N.3   1014  UNL1014    -0.3437
   4054 H          29.5313   10.8076    3.7202 H     1014  UNL1014     0.1146
   4055 H          30.8813   11.2756    4.4997 H     1014  UNL1014     0.1146
   4056 H          30.9679   10.7660    2.9564 H     1014  UNL1014     0.1146
   4057 N          30.0007   10.9328    6.3203 N.3   1015  UNL1015    -0.3437
   4058 H          29.6500   10.3893    5.5329 H     1015  UNL1015     0.1146
   4059 H          30.9652   10.6350    6.4598 H     1015  UNL1015     0.1146
   4060 H          30.0489   11.8977    5.9961 H     1015  UNL1015     0.1146
   4061 N          30.3239   11.1816    8.9041 N.3   1016  UNL1016    -0.3437
   4062 H          29.5613   10.7578    8.3776 H     1016  UNL1016     0.1146
   4063 H          30.9682   10.4235    9.1248 H     1016  UNL1016     0.1146
   4064 H          30.8161   11.7864    8.2481 H     1016  UNL1016     0.1146
   4065 N          29.1667    9.8549   11.1957 N.3   1017  UNL1017    -0.3437
   4066 H          28.4617    9.1318   11.0605 H     1017  UNL1017     0.1146
   4067 H          29.8731    9.4478   11.8071 H     1017  UNL1017     0.1146
   4068 H          29.6175    9.9804   10.2905 H     1017  UNL1017     0.1146
   4069 N          29.7736   11.1986   13.6361 N.3   1018  UNL1018    -0.3437
   4070 H          29.2113   10.7608   14.3644 H     1018  UNL1018     0.1146
   4071 H          30.5395   10.5536   13.4468 H     1018  UNL1018     0.1146
   4072 H          29.1947   11.2010   12.7975 H     1018  UNL1018     0.1146
   4073 N          30.4527   11.3131   15.9316 N.3   1019  UNL1019    -0.3437
   4074 H          29.5290   10.9114   16.0859 H     1019  UNL1019     0.1146
   4075 H          30.9064   11.3329   16.8438 H     1019  UNL1019     0.1146
   4076 H          30.9670   10.6302   15.3770 H     1019  UNL1019     0.1146
   4077 N          29.7564   11.2524   18.6652 N.3   1020  UNL1020    -0.3437
   4078 H          29.1119   10.5648   19.0528 H     1020  UNL1020     0.1146
   4079 H          30.6143   10.7450   18.4531 H     1020  UNL1020     0.1146
   4080 H          29.3645   11.5293   17.7663 H     1020  UNL1020     0.1146
   4081 N          30.2231   11.4082   21.0856 N.3   1021  UNL1021    -0.3437
   4082 H          29.7600   10.5944   20.6835 H     1021  UNL1021     0.1146
   4083 H          30.6869   11.0783   21.9308 H     1021  UNL1021     0.1146
   4084 H          30.9675   11.6573   20.4358 H     1021  UNL1021     0.1146
   4085 N          30.4877   10.9505   24.3368 N.3   1022  UNL1022    -0.3437
   4086 H          30.3939   10.4227   25.2034 H     1022  UNL1022     0.1146
   4087 H          29.5386   11.1191   24.0065 H     1022  UNL1022     0.1146
   4088 H          30.8589   11.8618   24.6017 H     1022  UNL1022     0.1146
   4089 N          29.3726   13.4297    1.4572 N.3   1023  UNL1023    -0.3437
   4090 H          28.5456   13.6691    0.9122 H     1023  UNL1023     0.1146
   4091 H          30.0471   13.0522    0.7931 H     1023  UNL1023     0.1146
   4092 H          29.7618   14.3143    1.7804 H     1023  UNL1023     0.1146
   4093 N          30.2421   13.5175    3.5864 N.3   1024  UNL1024    -0.3437
   4094 H          29.8004   14.3940    3.8601 H     1024  UNL1024     0.1146
   4095 H          30.9677   13.7661    2.9155 H     1024  UNL1024     0.1146
   4096 H          30.7296   13.1781    4.4144 H     1024  UNL1024     0.1146
   4097 N          30.0472   13.9294    6.3238 N.3   1025  UNL1025    -0.3437
   4098 H          29.5488   14.0498    5.4432 H     1025  UNL1025     0.1146
   4099 H          29.5701   13.1754    6.8158 H     1025  UNL1025     0.1146
   4100 H          30.9673   13.5666    6.0784 H     1025  UNL1025     0.1146
   4101 N          30.3665   13.8779    8.9035 N.3   1026  UNL1026    -0.3437
   4102 H          29.5182   13.6292    8.3967 H     1026  UNL1026     0.1146
   4103 H          30.8301   12.9977    9.1243 H     1026  UNL1026     0.1146
   4104 H          30.9676   14.3508    8.2302 H     1026  UNL1026     0.1146
   4105 N          30.3062   12.2961   11.2593 N.3   1027  UNL1027    -0.3437
   4106 H          29.5927   11.7876   10.7391 H     1027  UNL1027     0.1146
   4107 H          30.8095   11.5965   11.8031 H     1027  UNL1027     0.1146
   4108 H          30.9675   12.6412   10.5651 H     1027  UNL1027     0.1146
   4109 N          30.0870   13.5286   13.6190 N.3   1028  UNL1028    -0.3437
   4110 H          30.6663   14.3013   13.2937 H     1028  UNL1028     0.1146
   4111 H          29.4928   13.9125   14.3525 H     1028  UNL1028     0.1146
   4112 H          29.4650   13.2988   12.8453 H     1028  UNL1028     0.1146
   4113 N          30.3296   13.8883   16.2600 N.3   1029  UNL1029    -0.3437
   4114 H          29.5294   13.3650   15.9076 H     1029  UNL1029     0.1146
   4115 H          30.9680   13.1964   16.6500 H     1029  UNL1029     0.1146
   4116 H          30.7977   14.2715   15.4400 H     1029  UNL1029     0.1146
   4117 N          29.8120   13.4843   18.7248 N.3   1030  UNL1030    -0.3437
   4118 H          29.2697   13.4740   17.8621 H     1030  UNL1030     0.1146
   4119 H          30.7744   13.2873   18.4540 H     1030  UNL1030     0.1146
   4120 H          29.8039   14.4500   19.0501 H     1030  UNL1030     0.1146
   4121 N          30.1925   13.9670   21.0899 N.3   1031  UNL1031    -0.3437
   4122 H          29.6203   13.2356   20.6704 H     1031  UNL1031     0.1146
   4123 H          30.6011   13.5576   21.9288 H     1031  UNL1031     0.1146
   4124 H          30.9676   14.1210   20.4465 H     1031  UNL1031     0.1146
   4125 N          29.9499   13.9121   24.2043 N.3   1032  UNL1032    -0.3437
   4126 H          30.9319   14.1012   24.0087 H     1032  UNL1032     0.1146
   4127 H          29.6849   13.1417   23.5922 H     1032  UNL1032     0.1146
   4128 H          29.9189   13.5406   25.1527 H     1032  UNL1032     0.1146
   4129 N          30.1842   16.3838    1.4736 N.3   1033  UNL1033    -0.3437
   4130 H          29.5856   15.9232    0.7896 H     1033  UNL1033     0.1146
   4131 H          30.9524   15.7390    1.6540 H     1033  UNL1033     0.1146
   4132 H          30.5954   17.1832    0.9939 H     1033  UNL1033     0.1146
   4133 N          30.3478   16.3270    3.9846 N.3   1034  UNL1034    -0.3437
   4134 H          29.5095   16.3427    3.4056 H     1034  UNL1034     0.1146
   4135 H          30.9675   15.6366    3.5629 H     1034  UNL1034     0.1146
   4136 H          30.7999   17.2301    3.8489 H     1034  UNL1034     0.1146
   4137 N          30.1844   16.5273    6.3872 N.3   1035  UNL1035    -0.3437
   4138 H          29.6260   15.9635    5.7479 H     1035  UNL1035     0.1146
   4139 H          30.9377   15.9220    6.7108 H     1035  UNL1035     0.1146
   4140 H          30.6270   17.2451    5.8152 H     1035  UNL1035     0.1146
   4141 N          29.9915   16.3768    8.9327 N.3   1036  UNL1036    -0.3437
   4142 H          29.5333   15.7870    8.2396 H     1036  UNL1036     0.1146
   4143 H          30.9676   16.0849    8.9488 H     1036  UNL1036     0.1146
   4144 H          29.9867   17.3197    8.5464 H     1036  UNL1036     0.1146
   4145 N          30.2753   14.9916   11.2743 N.3   1037  UNL1037    -0.3437
   4146 H          29.7130   14.4784   10.5969 H     1037  UNL1037     0.1146
   4147 H          30.9560   14.3255   11.6365 H     1037  UNL1037     0.1146
   4148 H          30.8084   15.6740   10.7372 H     1037  UNL1037     0.1146
   4149 N          30.3723   16.3062   13.7115 N.3   1038  UNL1038    -0.3437
   4150 H          30.5361   16.2397   12.7079 H     1038  UNL1038     0.1146
   4151 H          30.1073   17.2740   13.8892 H     1038  UNL1038     0.1146
   4152 H          29.5401   15.7485   13.8978 H     1038  UNL1038     0.1146
   4153 N          30.3050   16.5050   16.2114 N.3   1039  UNL1039    -0.3437
   4154 H          29.5990   16.0587   15.6277 H     1039  UNL1039     0.1146
   4155 H          30.8101   15.7478   16.6696 H     1039  UNL1039     0.1146
   4156 H          30.9682   16.9368   15.5695 H     1039  UNL1039     0.1146
   4157 N          30.1940   16.4988   18.7387 N.3   1040  UNL1040    -0.3437
   4158 H          29.5304   16.0452   18.1123 H     1040  UNL1040     0.1146
   4159 H          30.9593   15.8377   18.8636 H     1040  UNL1040     0.1146
   4160 H          30.5826   17.2827   18.2163 H     1040  UNL1040     0.1146
   4161 N          30.2884   16.6394   21.2445 N.3   1041  UNL1041    -0.3437
   4162 H          29.5081   16.2344   20.7292 H     1041  UNL1041     0.1146
   4163 H          30.8193   15.8522   21.6146 H     1041  UNL1041     0.1146
   4164 H          30.8874   17.0791   20.5473 H     1041  UNL1041     0.1146
   4165 N          30.5472   16.2566   24.2633 N.3   1042  UNL1042    -0.3437
   4166 H          30.7421   15.9090   25.2011 H     1042  UNL1042     0.1146
   4167 H          29.5927   15.9702   24.0503 H     1042  UNL1042     0.1146
   4168 H          30.5251   17.2726   24.3392 H     1042  UNL1042     0.1146
   4169 N          29.6653   20.3809    1.0891 N.3   1043  UNL1043    -0.3437
   4170 H          29.3297   20.6220    2.0206 H     1043  UNL1043     0.1146
   4171 H          30.6811   20.3397    1.1585 H     1043  UNL1043     0.1146
   4172 H          29.3566   19.4250    0.9180 H     1043  UNL1043     0.1146
   4173 N          30.0113   19.2414    3.7241 N.3   1044  UNL1044    -0.3437
   4174 H          29.3843   18.5009    4.0353 H     1044  UNL1044     0.1146
   4175 H          30.8017   19.2289    4.3672 H     1044  UNL1044     0.1146
   4176 H          30.3778   18.9388    2.8227 H     1044  UNL1044     0.1146
   4177 N          29.4725   20.2001    6.4611 N.3   1045  UNL1045    -0.3437
   4178 H          30.0566   20.6693    5.7704 H     1045  UNL1045     0.1146
   4179 H          28.6108   20.7415    6.5145 H     1045  UNL1045     0.1146
   4180 H          29.2159   19.3039    6.0496 H     1045  UNL1045     0.1146
   4181 N          30.9232   20.1608    8.6167 N.3   1046  UNL1046    -0.3437
   4182 H          30.9672   19.7751    9.5588 H     1046  UNL1046     0.1146
   4183 H          30.9530   19.3621    7.9845 H     1046  UNL1046     0.1146
   4184 H          29.9910   20.5607    8.5202 H     1046  UNL1046     0.1146
   4185 N          29.9068   18.1375   11.2288 N.3   1047  UNL1047    -0.3437
   4186 H          29.6975   18.6614   10.3802 H     1047  UNL1047     0.1146
   4187 H          30.7270   17.5720   11.0146 H     1047  UNL1047     0.1146
   4188 H          30.2117   18.8256   11.9157 H     1047  UNL1047     0.1146
   4189 N          29.5562   20.3113   13.7614 N.3   1048  UNL1048    -0.3437
   4190 H          29.6974   20.5051   12.7710 H     1048  UNL1048     0.1146
   4191 H          28.6661   20.7420   14.0077 H     1048  UNL1048     0.1146
   4192 H          29.4107   19.3053   13.8327 H     1048  UNL1048     0.1146
   4193 N          30.6957   19.3385   15.7739 N.3   1049  UNL1049    -0.3437
   4194 H          30.9674   18.9079   16.6565 H     1049  UNL1049     0.1146
   4195 H          30.4736   18.5696   15.1430 H     1049  UNL1049     0.1146
   4196 H          29.8144   19.8171   15.9544 H     1049  UNL1049     0.1146
   4197 N          30.2421   20.4116   18.4299 N.3   1050  UNL1050    -0.3437
   4198 H          29.8004   19.4938   18.4009 H     1050  UNL1050     0.1146
   4199 H          30.9677   20.3517   19.1428 H     1050  UNL1050     0.1146
   4200 H          30.7296   20.5169   17.5413 H     1050  UNL1050     0.1146
   4201 N          30.2227   19.2328   20.8739 N.3   1051  UNL1051    -0.3437
   4202 H          29.4646   18.6234   21.1780 H     1051  UNL1051     0.1146
   4203 H          30.8063   19.3862   21.6951 H     1051  UNL1051     0.1146
   4204 H          30.7855   18.6803   20.2287 H     1051  UNL1051     0.1146
   4205 N          29.3960   19.2458   23.3412 N.3   1052  UNL1052    -0.3437
   4206 H          30.1458   18.5690   23.2067 H     1052  UNL1052     0.1146
   4207 H          28.5631   18.8279   22.9288 H     1052  UNL1052     0.1146
   4208 H          29.2253   19.2800   24.3452 H     1052  UNL1052     0.1146
@<TRIPOS>BOND
     1     1     2    1
     2     1     3    1
     3     1     4    1
     4     5     6    1
     5     5     7    1
     6     5     8    1
     7     9    10    1
     8     9    11    1
     9     9    12    1
    10    13    14    1
    11    13    15    1
    12    13    16    1
    13    17    18    1
    14    17    19    1
    15    17    20    1
    16    21    22    1
    17    21    23    1
    18    21    24    1
    19    25    26    1
    20    25    27    1
    21    25    28    1
    22    29    30    1
    23    29    31    1
    24    29    32    1
    25    33    34    1
    26    33    35    1
    27    33    36    1
    28    37    38    1
    29    37    39    1
    30    37    40    1
    31    41    42    1
    32    41    43    1
    33    41    44    1
    34    45    46    1
    35    45    47    1
    36    45    48    1
    37    49    50    1
    38    49    51    1
    39    49    52    1
    40    53    54    1
    41    53    55    1
    42    53    56    1
    43    57    58    1
    44    57    59    1
    45    57    60    1
    46    61    62    1
    47    61    63    1
    48    61    64    1
    49    65    66    1
    50    65    67    1
    51    65    68    1
    52    69    70    1
    53    69    71    1
    54    69    72    1
    55    73    74    1
    56    73    75    1
    57    73    76    1
    58    77    78    1
    59    77    79    1
    60    77    80    1
    61    81    82    1
    62    81    83    1
    63    81    84    1
    64    85    86    1
    65    85    87    1
    66    85    88    1
    67    89    90    1
    68    89    91    1
    69    89    92    1
    70    93    94    1
    71    93    95    1
    72    93    96    1
    73    97    98    1
    74    97    99    1
    75    97   100    1
    76   101   102    1
    77   101   103    1
    78   101   104    1
    79   105   106    1
    80   105   107    1
    81   105   108    1
    82   109   110    1
    83   109   111    1
    84   109   112    1
    85   113   114    1
    86   113   115    1
    87   113   116    1
    88   117   118    1
    89   117   119    1
    90   117   120    1
    91   121   122    1
    92   121   123    1
    93   121   124    1
    94   125   126    1
    95   125   127    1
    96   125   128    1
    97   129   130    1
    98   129   131    1
    99   129   132    1
   100   133   134    1
   101   133   135    1
   102   133   136    1
   103   137   138    1
   104   137   139    1
   105   137   140    1
   106   141   142    1
   107   141   143    1
   108   141   144    1
   109   145   146    1
   110   145   147    1
   111   145   148    1
   112   149   150    1
   113   149   151    1
   114   149   152    1
   115   153   154    1
   116   153   155    1
   117   153   156    1
   118   157   158    1
   119   157   159    1
   120   157   160    1
   121   161   162    1
   122   161   163    1
   123   161   164    1
   124   165   166    1
   125   165   167    1
   126   165   168    1
   127   169   170    1
   128   169   171    1
   129   169   172    1
   130   173   174    1
   131   173   175    1
   132   173   176    1
   133   177   178    1
   134   177   179    1
   135   177   180    1
   136   181   182    1
   137   181   183    1
   138   181   184    1
   139   185   186    1
   140   185   187    1
   141   185   188    1
   142   189   190    1
   143   189   191    1
   144   189   192    1
   145   193   194    1
   146   193   195    1
   147   193   196    1
   148   197   198    1
   149   197   199    1
   150   197   200    1
   151   201   202    1
   152   201   203    1
   153   201   204    1
   154   205   206    1
   155   205   207    1
   156   205   208    1
   157   209   210    1
   158   209   211    1
   159   209   212    1
   160   213   214    1
   161   213   215    1
   162   213   216    1
   163   217   218    1
   164   217   219    1
   165   217   220    1
   166   221   222    1
   167   221   223    1
   168   221   224    1
   169   225   226    1
   170   225   227    1
   171   225   228    1
   172   229   230    1
   173   229   231    1
   174   229   232    1
   175   233   234    1
   176   233   235    1
   177   233   236    1
   178   237   238    1
   179   237   239    1
   180   237   240    1
   181   241   242    1
   182   241   243    1
   183   241   244    1
   184   245   246    1
   185   245   247    1
   186   245   248    1
   187   249   250    1
   188   249   251    1
   189   249   252    1
   190   253   254    1
   191   253   255    1
   192   253   256    1
   193   257   258    1
   194   257   259    1
   195   257   260    1
   196   261   262    1
   197   261   263    1
   198   261   264    1
   199   265   266    1
   200   265   267    1
   201   265   268    1
   202   269   270    1
   203   269   271    1
   204   269   272    1
   205   273   274    1
   206   273   275    1
   207   273   276    1
   208   277   278    1
   209   277   279    1
   210   277   280    1
   211   281   282    1
   212   281   283    1
   213   281   284    1
   214   285   286    1
   215   285   287    1
   216   285   288    1
   217   289   290    1
   218   289   291    1
   219   289   292    1
   220   293   294    1
   221   293   295    1
   222   293   296    1
   223   297   298    1
   224   297   299    1
   225   297   300    1
   226   301   302    1
   227   301   303    1
   228   301   304    1
   229   305   306    1
   230   305   307    1
   231   305   308    1
   232   309   310    1
   233   309   311    1
   234   309   312    1
   235   313   314    1
   236   313   315    1
   237   313   316    1
   238   317   318    1
   239   317   319    1
   240   317   320    1
   241   321   322    1
   242   321   323    1
   243   321   324    1
   244   325   326    1
   245   325   327    1
   246   325   328    1
   247   329   330    1
   248   329   331    1
   249   329   332    1
   250   333   334    1
   251   333   335    1
   252   333   336    1
   253   337   338    1
   254   337   339    1
   255   337   340    1
   256   341   342    1
   257   341   343    1
   258   341   344    1
   259   345   346    1
   260   345   347    1
   261   345   348    1
   262   349   350    1
   263   349   351    1
   264   349   352    1
   265   353   354    1
   266   353   355    1
   267   353   356    1
   268   357   358    1
   269   357   359    1
   270   357   360    1
   271   361   362    1
   272   361   363    1
   273   361   364    1
   274   365   366    1
   275   365   367    1
   276   365   368    1
   277   369   370    1
   278   369   371    1
   279   369   372    1
   280   373   374    1
   281   373   375    1
   282   373   376    1
   283   377   378    1
   284   377   379    1
   285   377   380    1
   286   381   382    1
   287   381   383    1
   288   381   384    1
   289   385   386    1
   290   385   387    1
   291   385   388    1
   292   389   390    1
   293   389   391    1
   294   389   392    1
   295   393   394    1
   296   393   395    1
   297   393   396    1
   298   397   398    1
   299   397   399    1
   300   397   400    1
   301   401   402    1
   302   401   403    1
   303   401   404    1
   304   405   406    1
   305   405   407    1
   306   405   408    1
   307   409   410    1
   308   409   411    1
   309   409   412    1
   310   413   414    1
   311   413   415    1
   312   413   416    1
   313   417   418    1
   314   417   419    1
   315   417   420    1
   316   421   422    1
   317   421   423    1
   318   421   424    1
   319   425   426    1
   320   425   427    1
   321   425   428    1
   322   429   430    1
   323   429   431    1
   324   429   432    1
   325   433   434    1
   326   433   435    1
   327   433   436    1
   328   437   438    1
   329   437   439    1
   330   437   440    1
   331   441   442    1
   332   441   443    1
   333   441   444    1
   334   445   446    1
   335   445   447    1
   336   445   448    1
   337   449   450    1
   338   449   451    1
   339   449   452    1
   340   453   454    1
   341   453   455    1
   342   453   456    1
   343   457   458    1
   344   457   459    1
   345   457   460    1
   346   461   462    1
   347   461   463    1
   348   461   464    1
   349   465   466    1
   350   465   467    1
   351   465   468    1
   352   469   470    1
   353   469   471    1
   354   469   472    1
   355   473   474    1
   356   473   475    1
   357   473   476    1
   358   477   478    1
   359   477   479    1
   360   477   480    1
   361   481   482    1
   362   481   483    1
   363   481   484    1
   364   485   486    1
   365   485   487    1
   366   485   488    1
   367   489   490    1
   368   489   491    1
   369   489   492    1
   370   493   494    1
   371   493   495    1
   372   493   496    1
   373   497   498    1
   374   497   499    1
   375   497   500    1
   376   501   502    1
   377   501   503    1
   378   501   504    1
   379   505   506    1
   380   505   507    1
   381   505   508    1
   382   509   510    1
   383   509   511    1
   384   509   512    1
   385   513   514    1
   386   513   515    1
   387   513   516    1
   388   517   518    1
   389   517   519    1
   390   517   520    1
   391   521   522    1
   392   521   523    1
   393   521   524    1
   394   525   526    1
   395   525   527    1
   396   525   528    1
   397   529   530    1
   398   529   531    1
   399   529   532    1
   400   533   534    1
   401   533   535    1
   402   533   536    1
   403   537   538    1
   404   537   539    1
   405   537   540    1
   406   541   542    1
   407   541   543    1
   408   541   544    1
   409   545   546    1
   410   545   547    1
   411   545   548    1
   412   549   550    1
   413   549   551    1
   414   549   552    1
   415   553   554    1
   416   553   555    1
   417   553   556    1
   418   557   558    1
   419   557   559    1
   420   557   560    1
   421   561   562    1
   422   561   563    1
   423   561   564    1
   424   565   566    1
   425   565   567    1
   426   565   568    1
   427   569   570    1
   428   569   571    1
   429   569   572    1
   430   573   574    1
   431   573   575    1
   432   573   576    1
   433   577   578    1
   434   577   579    1
   435   577   580    1
   436   581   582    1
   437   581   583    1
   438   581   584    1
   439   585   586    1
   440   585   587    1
   441   585   588    1
   442   589   590    1
   443   589   591    1
   444   589   592    1
   445   593   594    1
   446   593   595    1
   447   593   596    1
   448   597   598    1
   449   597   599    1
   450   597   600    1
   451   601   602    1
   452   601   603    1
   453   601   604    1
   454   605   606    1
   455   605   607    1
   456   605   608    1
   457   609   610    1
   458   609   611    1
   459   609   612    1
   460   613   614    1
   461   613   615    1
   462   613   616    1
   463   617   618    1
   464   617   619    1
   465   617   620    1
   466   621   622    1
   467   621   623    1
   468   621   624    1
   469   625   626    1
   470   625   627    1
   471   625   628    1
   472   629   630    1
   473   629   631    1
   474   629   632    1
   475   633   634    1
   476   633   635    1
   477   633   636    1
   478   637   638    1
   479   637   639    1
   480   637   640    1
   481   641   642    1
   482   641   643    1
   483   641   644    1
   484   645   646    1
   485   645   647    1
   486   645   648    1
   487   649   650    1
   488   649   651    1
   489   649   652    1
   490   653   654    1
   491   653   655    1
   492   653   656    1
   493   657   658    1
   494   657   659    1
   495   657   660    1
   496   661   662    1
   497   661   663    1
   498   661   664    1
   499   665   666    1
   500   665   667    1
   501   665   668    1
   502   669   670    1
   503   669   671    1
   504   669   672    1
   505   673   674    1
   506   673   675    1
   507   673   676    1
   508   677   678    1
   509   677   679    1
   510   677   680    1
   511   681   682    1
   512   681   683    1
   513   681   684    1
   514   685   686    1
   515   685   687    1
   516   685   688    1
   517   689   690    1
   518   689   691    1
   519   689   692    1
   520   693   694    1
   521   693   695    1
   522   693   696    1
   523   697   698    1
   524   697   699    1
   525   697   700    1
   526   701   702    1
   527   701   703    1
   528   701   704    1
   529   705   706    1
   530   705   707    1
   531   705   708    1
   532   709   710    1
   533   709   711    1
   534   709   712    1
   535   713   714    1
   536   713   715    1
   537   713   716    1
   538   717   718    1
   539   717   719    1
   540   717   720    1
   541   721   722    1
   542   721   723    1
   543   721   724    1
   544   725   726    1
   545   725   727    1
   546   725   728    1
   547   729   730    1
   548   729   731    1
   549   729   732    1
   550   733   734    1
   551   733   735    1
   552   733   736    1
   553   737   738    1
   554   737   739    1
   555   737   740    1
   556   741   742    1
   557   741   743    1
   558   741   744    1
   559   745   746    1
   560   745   747    1
   561   745   748    1
   562   749   750    1
   563   749   751    1
   564   749   752    1
   565   753   754    1
   566   753   755    1
   567   753   756    1
   568   757   758    1
   569   757   759    1
   570   757   760    1
   571   761   762    1
   572   761   763    1
   573   761   764    1
   574   765   766    1
   575   765   767    1
   576   765   768    1
   577   769   770    1
   578   769   771    1
   579   769   772    1
   580   773   774    1
   581   773   775    1
   582   773   776    1
   583   777   778    1
   584   777   779    1
   585   777   780    1
   586   781   782    1
   587   781   783    1
   588   781   784    1
   589   785   786    1
   590   785   787    1
   591   785   788    1
   592   789   790    1
   593   789   791    1
   594   789   792    1
   595   793   794    1
   596   793   795    1
   597   793   796    1
   598   797   798    1
   599   797   799    1
   600   797   800    1
   601   801   802    1
   602   801   803    1
   603   801   804    1
   604   805   806    1
   605   805   807    1
   606   805   808    1
   607   809   810    1
   608   809   811    1
   609   809   812    1
   610   813   814    1
   611   813   815    1
   612   813   816    1
   613   817   818    1
   614   817   819    1
   615   817   820    1
   616   821   822    1
   617   821   823    1
   618   821   824    1
   619   825   826    1
   620   825   827    1
   621   825   828    1
   622   829   830    1
   623   829   831    1
   624   829   832    1
   625   833   834    1
   626   833   835    1
   627   833   836    1
   628   837   838    1
   629   837   839    1
   630   837   840    1
   631   841   842    1
   632   841   843    1
   633   841   844    1
   634   845   846    1
   635   845   847    1
   636   845   848    1
   637   849   850    1
   638   849   851    1
   639   849   852    1
   640   853   854    1
   641   853   855    1
   642   853   856    1
   643   857   858    1
   644   857   859    1
   645   857   860    1
   646   861   862    1
   647   861   863    1
   648   861   864    1
   649   865   866    1
   650   865   867    1
   651   865   868    1
   652   869   870    1
   653   869   871    1
   654   869   872    1
   655   873   874    1
   656   873   875    1
   657   873   876    1
   658   877   878    1
   659   877   879    1
   660   877   880    1
   661   881   882    1
   662   881   883    1
   663   881   884    1
   664   885   886    1
   665   885   887    1
   666   885   888    1
   667   889   890    1
   668   889   891    1
   669   889   892    1
   670   893   894    1
   671   893   895    1
   672   893   896    1
   673   897   898    1
   674   897   899    1
   675   897   900    1
   676   901   902    1
   677   901   903    1
   678   901   904    1
   679   905   906    1
   680   905   907    1
   681   905   908    1
   682   909   910    1
   683   909   911    1
   684   909   912    1
   685   913   914    1
   686   913   915    1
   687   913   916    1
   688   917   918    1
   689   917   919    1
   690   917   920    1
   691   921   922    1
   692   921   923    1
   693   921   924    1
   694   925   926    1
   695   925   927    1
   696   925   928    1
   697   929   930    1
   698   929   931    1
   699   929   932    1
   700   933   934    1
   701   933   935    1
   702   933   936    1
   703   937   938    1
   704   937   939    1
   705   937   940    1
   706   941   942    1
   707   941   943    1
   708   941   944    1
   709   945   946    1
   710   945   947    1
   711   945   948    1
   712   949   950    1
   713   949   951    1
   714   949   952    1
   715   953   954    1
   716   953   955    1
   717   953   956    1
   718   957   958    1
   719   957   959    1
   720   957   960    1
   721   961   962    1
   722   961   963    1
   723   961   964    1
   724   965   966    1
   725   965   967    1
   726   965   968    1
   727   969   970    1
   728   969   971    1
   729   969   972    1
   730   973   974    1
   731   973   975    1
   732   973   976    1
   733   977   978    1
   734   977   979    1
   735   977   980    1
   736   981   982    1
   737   981   983    1
   738   981   984    1
   739   985   986    1
   740   985   987    1
   741   985   988    1
   742   989   990    1
   743   989   991    1
   744   989   992    1
   745   993   994    1
   746   993   995    1
   747   993   996    1
   748   997   998    1
   749   997   999    1
   750   997  1000    1
   751  1001  1002    1
   752  1001  1003    1
   753  1001  1004    1
   754  1005  1006    1
   755  1005  1007    1
   756  1005  1008    1
   757  1009  1010    1
   758  1009  1011    1
   759  1009  1012    1
   760  1013  1014    1
   761  1013  1015    1
   762  1013  1016    1
   763  1017  1018    1
   764  1017  1019    1
   765  1017  1020    1
   766  1021  1022    1
   767  1021  1023    1
   768  1021  1024    1
   769  1025  1026    1
   770  1025  1027    1
   771  1025  1028    1
   772  1029  1030    1
   773  1029  1031    1
   774  1029  1032    1
   775  1033  1034    1
   776  1033  1035    1
   777  1033  1036    1
   778  1037  1038    1
   779  1037  1039    1
   780  1037  1040    1
   781  1041  1042    1
   782  1041  1043    1
   783  1041  1044    1
   784  1045  1046    1
   785  1045  1047    1
   786  1045  1048    1
   787  1049  1050    1
   788  1049  1051    1
   789  1049  1052    1
   790  1053  1054    1
   791  1053  1055    1
   792  1053  1056    1
   793  1057  1058    1
   794  1057  1059    1
   795  1057  1060    1
   796  1061  1062    1
   797  1061  1063    1
   798  1061  1064    1
   799  1065  1066    1
   800  1065  1067    1
   801  1065  1068    1
   802  1069  1070    1
   803  1069  1071    1
   804  1069  1072    1
   805  1073  1074    1
   806  1073  1075    1
   807  1073  1076    1
   808  1077  1078    1
   809  1077  1079    1
   810  1077  1080    1
   811  1081  1082    1
   812  1081  1083    1
   813  1081  1084    1
   814  1085  1086    1
   815  1085  1087    1
   816  1085  1088    1
   817  1089  1090    1
   818  1089  1091    1
   819  1089  1092    1
   820  1093  1094    1
   821  1093  1095    1
   822  1093  1096    1
   823  1097  1098    1
   824  1097  1099    1
   825  1097  1100    1
   826  1101  1102    1
   827  1101  1103    1
   828  1101  1104    1
   829  1105  1106    1
   830  1105  1107    1
   831  1105  1108    1
   832  1109  1110    1
   833  1109  1111    1
   834  1109  1112    1
   835  1113  1114    1
   836  1113  1115    1
   837  1113  1116    1
   838  1117  1118    1
   839  1117  1119    1
   840  1117  1120    1
   841  1121  1122    1
   842  1121  1123    1
   843  1121  1124    1
   844  1125  1126    1
   845  1125  1127    1
   846  1125  1128    1
   847  1129  1130    1
   848  1129  1131    1
   849  1129  1132    1
   850  1133  1134    1
   851  1133  1135    1
   852  1133  1136    1
   853  1137  1138    1
   854  1137  1139    1
   855  1137  1140    1
   856  1141  1142    1
   857  1141  1143    1
   858  1141  1144    1
   859  1145  1146    1
   860  1145  1147    1
   861  1145  1148    1
   862  1149  1150    1
   863  1149  1151    1
   864  1149  1152    1
   865  1153  1154    1
   866  1153  1155    1
   867  1153  1156    1
   868  1157  1158    1
   869  1157  1159    1
   870  1157  1160    1
   871  1161  1162    1
   872  1161  1163    1
   873  1161  1164    1
   874  1165  1166    1
   875  1165  1167    1
   876  1165  1168    1
   877  1169  1170    1
   878  1169  1171    1
   879  1169  1172    1
   880  1173  1174    1
   881  1173  1175    1
   882  1173  1176    1
   883  1177  1178    1
   884  1177  1179    1
   885  1177  1180    1
   886  1181  1182    1
   887  1181  1183    1
   888  1181  1184    1
   889  1185  1186    1
   890  1185  1187    1
   891  1185  1188    1
   892  1189  1190    1
   893  1189  1191    1
   894  1189  1192    1
   895  1193  1194    1
   896  1193  1195    1
   897  1193  1196    1
   898  1197  1198    1
   899  1197  1199    1
   900  1197  1200    1
   901  1201  1202    1
   902  1201  1203    1
   903  1201  1204    1
   904  1205  1206    1
   905  1205  1207    1
   906  1205  1208    1
   907  1209  1210    1
   908  1209  1211    1
   909  1209  1212    1
   910  1213  1214    1
   911  1213  1215    1
   912  1213  1216    1
   913  1217  1218    1
   914  1217  1219    1
   915  1217  1220    1
   916  1221  1222    1
   917  1221  1223    1
   918  1221  1224    1
   919  1225  1226    1
   920  1225  1227    1
   921  1225  1228    1
   922  1229  1230    1
   923  1229  1231    1
   924  1229  1232    1
   925  1233  1234    1
   926  1233  1235    1
   927  1233  1236    1
   928  1237  1238    1
   929  1237  1239    1
   930  1237  1240    1
   931  1241  1242    1
   932  1241  1243    1
   933  1241  1244    1
   934  1245  1246    1
   935  1245  1247    1
   936  1245  1248    1
   937  1249  1250    1
   938  1249  1251    1
   939  1249  1252    1
   940  1253  1254    1
   941  1253  1255    1
   942  1253  1256    1
   943  1257  1258    1
   944  1257  1259    1
   945  1257  1260    1
   946  1261  1262    1
   947  1261  1263    1
   948  1261  1264    1
   949  1265  1266    1
   950  1265  1267    1
   951  1265  1268    1
   952  1269  1270    1
   953  1269  1271    1
   954  1269  1272    1
   955  1273  1274    1
   956  1273  1275    1
   957  1273  1276    1
   958  1277  1278    1
   959  1277  1279    1
   960  1277  1280    1
   961  1281  1282    1
   962  1281  1283    1
   963  1281  1284    1
   964  1285  1286    1
   965  1285  1287    1
   966  1285  1288    1
   967  1289  1290    1
   968  1289  1291    1
   969  1289  1292    1
   970  1293  1294    1
   971  1293  1295    1
   972  1293  1296    1
   973  1297  1298    1
   974  1297  1299    1
   975  1297  1300    1
   976  1301  1302    1
   977  1301  1303    1
   978  1301  1304    1
   979  1305  1306    1
   980  1305  1307    1
   981  1305  1308    1
   982  1309  1310    1
   983  1309  1311    1
   984  1309  1312    1
   985  1313  1314    1
   986  1313  1315    1
   987  1313  1316    1
   988  1317  1318    1
   989  1317  1319    1
   990  1317  1320    1
   991  1321  1322    1
   992  1321  1323    1
   993  1321  1324    1
   994  1325  1326    1
   995  1325  1327    1
   996  1325  1328    1
   997  1329  1330    1
   998  1329  1331    1
   999  1329  1332    1
  1000  1333  1334    1
  1001  1333  1335    1
  1002  1333  1336    1
  1003  1337  1338    1
  1004  1337  1339    1
  1005  1337  1340    1
  1006  1341  1342    1
  1007  1341  1343    1
  1008  1341  1344    1
  1009  1345  1346    1
  1010  1345  1347    1
  1011  1345  1348    1
  1012  1349  1350    1
  1013  1349  1351    1
  1014  1349  1352    1
  1015  1353  1354    1
  1016  1353  1355    1
  1017  1353  1356    1
  1018  1357  1358    1
  1019  1357  1359    1
  1020  1357  1360    1
  1021  1361  1362    1
  1022  1361  1363    1
  1023  1361  1364    1
  1024  1365  1366    1
  1025  1365  1367    1
  1026  1365  1368    1
  1027  1369  1370    1
  1028  1369  1371    1
  1029  1369  1372    1
  1030  1373  1374    1
  1031  1373  1375    1
  1032  1373  1376    1
  1033  1377  1378    1
  1034  1377  1379    1
  1035  1377  1380    1
  1036  1381  1382    1
  1037  1381  1383    1
  1038  1381  1384    1
  1039  1385  1386    1
  1040  1385  1387    1
  1041  1385  1388    1
  1042  1389  1390    1
  1043  1389  1391    1
  1044  1389  1392    1
  1045  1393  1394    1
  1046  1393  1395    1
  1047  1393  1396    1
  1048  1397  1398    1
  1049  1397  1399    1
  1050  1397  1400    1
  1051  1401  1402    1
  1052  1401  1403    1
  1053  1401  1404    1
  1054  1405  1406    1
  1055  1405  1407    1
  1056  1405  1408    1
  1057  1409  1410    1
  1058  1409  1411    1
  1059  1409  1412    1
  1060  1413  1414    1
  1061  1413  1415    1
  1062  1413  1416    1
  1063  1417  1418    1
  1064  1417  1419    1
  1065  1417  1420    1
  1066  1421  1422    1
  1067  1421  1423    1
  1068  1421  1424    1
  1069  1425  1426    1
  1070  1425  1427    1
  1071  1425  1428    1
  1072  1429  1430    1
  1073  1429  1431    1
  1074  1429  1432    1
  1075  1433  1434    1
  1076  1433  1435    1
  1077  1433  1436    1
  1078  1437  1438    1
  1079  1437  1439    1
  1080  1437  1440    1
  1081  1441  1442    1
  1082  1441  1443    1
  1083  1441  1444    1
  1084  1445  1446    1
  1085  1445  1447    1
  1086  1445  1448    1
  1087  1449  1450    1
  1088  1449  1451    1
  1089  1449  1452    1
  1090  1453  1454    1
  1091  1453  1455    1
  1092  1453  1456    1
  1093  1457  1458    1
  1094  1457  1459    1
  1095  1457  1460    1
  1096  1461  1462    1
  1097  1461  1463    1
  1098  1461  1464    1
  1099  1465  1466    1
  1100  1465  1467    1
  1101  1465  1468    1
  1102  1469  1470    1
  1103  1469  1471    1
  1104  1469  1472    1
  1105  1473  1474    1
  1106  1473  1475    1
  1107  1473  1476    1
  1108  1477  1478    1
  1109  1477  1479    1
  1110  1477  1480    1
  1111  1481  1482    1
  1112  1481  1483    1
  1113  1481  1484    1
  1114  1485  1486    1
  1115  1485  1487    1
  1116  1485  1488    1
  1117  1489  1490    1
  1118  1489  1491    1
  1119  1489  1492    1
  1120  1493  1494    1
  1121  1493  1495    1
  1122  1493  1496    1
  1123  1497  1498    1
  1124  1497  1499    1
  1125  1497  1500    1
  1126  1501  1502    1
  1127  1501  1503    1
  1128  1501  1504    1
  1129  1505  1506    1
  1130  1505  1507    1
  1131  1505  1508    1
  1132  1509  1510    1
  1133  1509  1511    1
  1134  1509  1512    1
  1135  1513  1514    1
  1136  1513  1515    1
  1137  1513  1516    1
  1138  1517  1518    1
  1139  1517  1519    1
  1140  1517  1520    1
  1141  1521  1522    1
  1142  1521  1523    1
  1143  1521  1524    1
  1144  1525  1526    1
  1145  1525  1527    1
  1146  1525  1528    1
  1147  1529  1530    1
  1148  1529  1531    1
  1149  1529  1532    1
  1150  1533  1534    1
  1151  1533  1535    1
  1152  1533  1536    1
  1153  1537  1538    1
  1154  1537  1539    1
  1155  1537  1540    1
  1156  1541  1542    1
  1157  1541  1543    1
  1158  1541  1544    1
  1159  1545  1546    1
  1160  1545  1547    1
  1161  1545  1548    1
  1162  1549  1550    1
  1163  1549  1551    1
  1164  1549  1552    1
  1165  1553  1554    1
  1166  1553  1555    1
  1167  1553  1556    1
  1168  1557  1558    1
  1169  1557  1559    1
  1170  1557  1560    1
  1171  1561  1562    1
  1172  1561  1563    1
  1173  1561  1564    1
  1174  1565  1566    1
  1175  1565  1567    1
  1176  1565  1568    1
  1177  1569  1570    1
  1178  1569  1571    1
  1179  1569  1572    1
  1180  1573  1574    1
  1181  1573  1575    1
  1182  1573  1576    1
  1183  1577  1578    1
  1184  1577  1579    1
  1185  1577  1580    1
  1186  1581  1582    1
  1187  1581  1583    1
  1188  1581  1584    1
  1189  1585  1586    1
  1190  1585  1587    1
  1191  1585  1588    1
  1192  1589  1590    1
  1193  1589  1591    1
  1194  1589  1592    1
  1195  1593  1594    1
  1196  1593  1595    1
  1197  1593  1596    1
  1198  1597  1598    1
  1199  1597  1599    1
  1200  1597  1600    1
  1201  1601  1602    1
  1202  1601  1603    1
  1203  1601  1604    1
  1204  1605  1606    1
  1205  1605  1607    1
  1206  1605  1608    1
  1207  1609  1610    1
  1208  1609  1611    1
  1209  1609  1612    1
  1210  1613  1614    1
  1211  1613  1615    1
  1212  1613  1616    1
  1213  1617  1618    1
  1214  1617  1619    1
  1215  1617  1620    1
  1216  1621  1622    1
  1217  1621  1623    1
  1218  1621  1624    1
  1219  1625  1626    1
  1220  1625  1627    1
  1221  1625  1628    1
  1222  1629  1630    1
  1223  1629  1631    1
  1224  1629  1632    1
  1225  1633  1634    1
  1226  1633  1635    1
  1227  1633  1636    1
  1228  1637  1638    1
  1229  1637  1639    1
  1230  1637  1640    1
  1231  1641  1642    1
  1232  1641  1643    1
  1233  1641  1644    1
  1234  1645  1646    1
  1235  1645  1647    1
  1236  1645  1648    1
  1237  1649  1650    1
  1238  1649  1651    1
  1239  1649  1652    1
  1240  1653  1654    1
  1241  1653  1655    1
  1242  1653  1656    1
  1243  1657  1658    1
  1244  1657  1659    1
  1245  1657  1660    1
  1246  1661  1662    1
  1247  1661  1663    1
  1248  1661  1664    1
  1249  1665  1666    1
  1250  1665  1667    1
  1251  1665  1668    1
  1252  1669  1670    1
  1253  1669  1671    1
  1254  1669  1672    1
  1255  1673  1674    1
  1256  1673  1675    1
  1257  1673  1676    1
  1258  1677  1678    1
  1259  1677  1679    1
  1260  1677  1680    1
  1261  1681  1682    1
  1262  1681  1683    1
  1263  1681  1684    1
  1264  1685  1686    1
  1265  1685  1687    1
  1266  1685  1688    1
  1267  1689  1690    1
  1268  1689  1691    1
  1269  1689  1692    1
  1270  1693  1694    1
  1271  1693  1695    1
  1272  1693  1696    1
  1273  1697  1698    1
  1274  1697  1699    1
  1275  1697  1700    1
  1276  1701  1702    1
  1277  1701  1703    1
  1278  1701  1704    1
  1279  1705  1706    1
  1280  1705  1707    1
  1281  1705  1708    1
  1282  1709  1710    1
  1283  1709  1711    1
  1284  1709  1712    1
  1285  1713  1714    1
  1286  1713  1715    1
  1287  1713  1716    1
  1288  1717  1718    1
  1289  1717  1719    1
  1290  1717  1720    1
  1291  1721  1722    1
  1292  1721  1723    1
  1293  1721  1724    1
  1294  1725  1726    1
  1295  1725  1727    1
  1296  1725  1728    1
  1297  1729  1730    1
  1298  1729  1731    1
  1299  1729  1732    1
  1300  1733  1734    1
  1301  1733  1735    1
  1302  1733  1736    1
  1303  1737  1738    1
  1304  1737  1739    1
  1305  1737  1740    1
  1306  1741  1742    1
  1307  1741  1743    1
  1308  1741  1744    1
  1309  1745  1746    1
  1310  1745  1747    1
  1311  1745  1748    1
  1312  1749  1750    1
  1313  1749  1751    1
  1314  1749  1752    1
  1315  1753  1754    1
  1316  1753  1755    1
  1317  1753  1756    1
  1318  1757  1758    1
  1319  1757  1759    1
  1320  1757  1760    1
  1321  1761  1762    1
  1322  1761  1763    1
  1323  1761  1764    1
  1324  1765  1766    1
  1325  1765  1767    1
  1326  1765  1768    1
  1327  1769  1770    1
  1328  1769  1771    1
  1329  1769  1772    1
  1330  1773  1774    1
  1331  1773  1775    1
  1332  1773  1776    1
  1333  1777  1778    1
  1334  1777  1779    1
  1335  1777  1780    1
  1336  1781  1782    1
  1337  1781  1783    1
  1338  1781  1784    1
  1339  1785  1786    1
  1340  1785  1787    1
  1341  1785  1788    1
  1342  1789  1790    1
  1343  1789  1791    1
  1344  1789  1792    1
  1345  1793  1794    1
  1346  1793  1795    1
  1347  1793  1796    1
  1348  1797  1798    1
  1349  1797  1799    1
  1350  1797  1800    1
  1351  1801  1802    1
  1352  1801  1803    1
  1353  1801  1804    1
  1354  1805  1806    1
  1355  1805  1807    1
  1356  1805  1808    1
  1357  1809  1810    1
  1358  1809  1811    1
  1359  1809  1812    1
  1360  1813  1814    1
  1361  1813  1815    1
  1362  1813  1816    1
  1363  1817  1818    1
  1364  1817  1819    1
  1365  1817  1820    1
  1366  1821  1822    1
  1367  1821  1823    1
  1368  1821  1824    1
  1369  1825  1826    1
  1370  1825  1827    1
  1371  1825  1828    1
  1372  1829  1830    1
  1373  1829  1831    1
  1374  1829  1832    1
  1375  1833  1834    1
  1376  1833  1835    1
  1377  1833  1836    1
  1378  1837  1838    1
  1379  1837  1839    1
  1380  1837  1840    1
  1381  1841  1842    1
  1382  1841  1843    1
  1383  1841  1844    1
  1384  1845  1846    1
  1385  1845  1847    1
  1386  1845  1848    1
  1387  1849  1850    1
  1388  1849  1851    1
  1389  1849  1852    1
  1390  1853  1854    1
  1391  1853  1855    1
  1392  1853  1856    1
  1393  1857  1858    1
  1394  1857  1859    1
  1395  1857  1860    1
  1396  1861  1862    1
  1397  1861  1863    1
  1398  1861  1864    1
  1399  1865  1866    1
  1400  1865  1867    1
  1401  1865  1868    1
  1402  1869  1870    1
  1403  1869  1871    1
  1404  1869  1872    1
  1405  1873  1874    1
  1406  1873  1875    1
  1407  1873  1876    1
  1408  1877  1878    1
  1409  1877  1879    1
  1410  1877  1880    1
  1411  1881  1882    1
  1412  1881  1883    1
  1413  1881  1884    1
  1414  1885  1886    1
  1415  1885  1887    1
  1416  1885  1888    1
  1417  1889  1890    1
  1418  1889  1891    1
  1419  1889  1892    1
  1420  1893  1894    1
  1421  1893  1895    1
  1422  1893  1896    1
  1423  1897  1898    1
  1424  1897  1899    1
  1425  1897  1900    1
  1426  1901  1902    1
  1427  1901  1903    1
  1428  1901  1904    1
  1429  1905  1906    1
  1430  1905  1907    1
  1431  1905  1908    1
  1432  1909  1910    1
  1433  1909  1911    1
  1434  1909  1912    1
  1435  1913  1914    1
  1436  1913  1915    1
  1437  1913  1916    1
  1438  1917  1918    1
  1439  1917  1919    1
  1440  1917  1920    1
  1441  1921  1922    1
  1442  1921  1923    1
  1443  1921  1924    1
  1444  1925  1926    1
  1445  1925  1927    1
  1446  1925  1928    1
  1447  1929  1930    1
  1448  1929  1931    1
  1449  1929  1932    1
  1450  1933  1934    1
  1451  1933  1935    1
  1452  1933  1936    1
  1453  1937  1938    1
  1454  1937  1939    1
  1455  1937  1940    1
  1456  1941  1942    1
  1457  1941  1943    1
  1458  1941  1944    1
  1459  1945  1946    1
  1460  1945  1947    1
  1461  1945  1948    1
  1462  1949  1950    1
  1463  1949  1951    1
  1464  1949  1952    1
  1465  1953  1954    1
  1466  1953  1955    1
  1467  1953  1956    1
  1468  1957  1958    1
  1469  1957  1959    1
  1470  1957  1960    1
  1471  1961  1962    1
  1472  1961  1963    1
  1473  1961  1964    1
  1474  1965  1966    1
  1475  1965  1967    1
  1476  1965  1968    1
  1477  1969  1970    1
  1478  1969  1971    1
  1479  1969  1972    1
  1480  1973  1974    1
  1481  1973  1975    1
  1482  1973  1976    1
  1483  1977  1978    1
  1484  1977  1979    1
  1485  1977  1980    1
  1486  1981  1982    1
  1487  1981  1983    1
  1488  1981  1984    1
  1489  1985  1986    1
  1490  1985  1987    1
  1491  1985  1988    1
  1492  1989  1990    1
  1493  1989  1991    1
  1494  1989  1992    1
  1495  1993  1994    1
  1496  1993  1995    1
  1497  1993  1996    1
  1498  1997  1998    1
  1499  1997  1999    1
  1500  1997  2000    1
  1501  2001  2002    1
  1502  2001  2003    1
  1503  2001  2004    1
  1504  2005  2006    1
  1505  2005  2007    1
  1506  2005  2008    1
  1507  2009  2010    1
  1508  2009  2011    1
  1509  2009  2012    1
  1510  2013  2014    1
  1511  2013  2015    1
  1512  2013  2016    1
  1513  2017  2018    1
  1514  2017  2019    1
  1515  2017  2020    1
  1516  2021  2022    1
  1517  2021  2023    1
  1518  2021  2024    1
  1519  2025  2026    1
  1520  2025  2027    1
  1521  2025  2028    1
  1522  2029  2030    1
  1523  2029  2031    1
  1524  2029  2032    1
  1525  2033  2034    1
  1526  2033  2035    1
  1527  2033  2036    1
  1528  2037  2038    1
  1529  2037  2039    1
  1530  2037  2040    1
  1531  2041  2042    1
  1532  2041  2043    1
  1533  2041  2044    1
  1534  2045  2046    1
  1535  2045  2047    1
  1536  2045  2048    1
  1537  2049  2050    1
  1538  2049  2051    1
  1539  2049  2052    1
  1540  2053  2054    1
  1541  2053  2055    1
  1542  2053  2056    1
  1543  2057  2058    1
  1544  2057  2059    1
  1545  2057  2060    1
  1546  2061  2062    1
  1547  2061  2063    1
  1548  2061  2064    1
  1549  2065  2066    1
  1550  2065  2067    1
  1551  2065  2068    1
  1552  2069  2070    1
  1553  2069  2071    1
  1554  2069  2072    1
  1555  2073  2074    1
  1556  2073  2075    1
  1557  2073  2076    1
  1558  2077  2078    1
  1559  2077  2079    1
  1560  2077  2080    1
  1561  2081  2082    1
  1562  2081  2083    1
  1563  2081  2084    1
  1564  2085  2086    1
  1565  2085  2087    1
  1566  2085  2088    1
  1567  2089  2090    1
  1568  2089  2091    1
  1569  2089  2092    1
  1570  2093  2094    1
  1571  2093  2095    1
  1572  2093  2096    1
  1573  2097  2098    1
  1574  2097  2099    1
  1575  2097  2100    1
  1576  2101  2102    1
  1577  2101  2103    1
  1578  2101  2104    1
  1579  2105  2106    1
  1580  2105  2107    1
  1581  2105  2108    1
  1582  2109  2110    1
  1583  2109  2111    1
  1584  2109  2112    1
  1585  2113  2114    1
  1586  2113  2115    1
  1587  2113  2116    1
  1588  2117  2118    1
  1589  2117  2119    1
  1590  2117  2120    1
  1591  2121  2122    1
  1592  2121  2123    1
  1593  2121  2124    1
  1594  2125  2126    1
  1595  2125  2127    1
  1596  2125  2128    1
  1597  2129  2130    1
  1598  2129  2131    1
  1599  2129  2132    1
  1600  2133  2134    1
  1601  2133  2135    1
  1602  2133  2136    1
  1603  2137  2138    1
  1604  2137  2139    1
  1605  2137  2140    1
  1606  2141  2142    1
  1607  2141  2143    1
  1608  2141  2144    1
  1609  2145  2146    1
  1610  2145  2147    1
  1611  2145  2148    1
  1612  2149  2150    1
  1613  2149  2151    1
  1614  2149  2152    1
  1615  2153  2154    1
  1616  2153  2155    1
  1617  2153  2156    1
  1618  2157  2158    1
  1619  2157  2159    1
  1620  2157  2160    1
  1621  2161  2162    1
  1622  2161  2163    1
  1623  2161  2164    1
  1624  2165  2166    1
  1625  2165  2167    1
  1626  2165  2168    1
  1627  2169  2170    1
  1628  2169  2171    1
  1629  2169  2172    1
  1630  2173  2174    1
  1631  2173  2175    1
  1632  2173  2176    1
  1633  2177  2178    1
  1634  2177  2179    1
  1635  2177  2180    1
  1636  2181  2182    1
  1637  2181  2183    1
  1638  2181  2184    1
  1639  2185  2186    1
  1640  2185  2187    1
  1641  2185  2188    1
  1642  2189  2190    1
  1643  2189  2191    1
  1644  2189  2192    1
  1645  2193  2194    1
  1646  2193  2195    1
  1647  2193  2196    1
  1648  2197  2198    1
  1649  2197  2199    1
  1650  2197  2200    1
  1651  2201  2202    1
  1652  2201  2203    1
  1653  2201  2204    1
  1654  2205  2206    1
  1655  2205  2207    1
  1656  2205  2208    1
  1657  2209  2210    1
  1658  2209  2211    1
  1659  2209  2212    1
  1660  2213  2214    1
  1661  2213  2215    1
  1662  2213  2216    1
  1663  2217  2218    1
  1664  2217  2219    1
  1665  2217  2220    1
  1666  2221  2222    1
  1667  2221  2223    1
  1668  2221  2224    1
  1669  2225  2226    1
  1670  2225  2227    1
  1671  2225  2228    1
  1672  2229  2230    1
  1673  2229  2231    1
  1674  2229  2232    1
  1675  2233  2234    1
  1676  2233  2235    1
  1677  2233  2236    1
  1678  2237  2238    1
  1679  2237  2239    1
  1680  2237  2240    1
  1681  2241  2242    1
  1682  2241  2243    1
  1683  2241  2244    1
  1684  2245  2246    1
  1685  2245  2247    1
  1686  2245  2248    1
  1687  2249  2250    1
  1688  2249  2251    1
  1689  2249  2252    1
  1690  2253  2254    1
  1691  2253  2255    1
  1692  2253  2256    1
  1693  2257  2258    1
  1694  2257  2259    1
  1695  2257  2260    1
  1696  2261  2262    1
  1697  2261  2263    1
  1698  2261  2264    1
  1699  2265  2266    1
  1700  2265  2267    1
  1701  2265  2268    1
  1702  2269  2270    1
  1703  2269  2271    1
  1704  2269  2272    1
  1705  2273  2274    1
  1706  2273  2275    1
  1707  2273  2276    1
  1708  2277  2278    1
  1709  2277  2279    1
  1710  2277  2280    1
  1711  2281  2282    1
  1712  2281  2283    1
  1713  2281  2284    1
  1714  2285  2286    1
  1715  2285  2287    1
  1716  2285  2288    1
  1717  2289  2290    1
  1718  2289  2291    1
  1719  2289  2292    1
  1720  2293  2294    1
  1721  2293  2295    1
  1722  2293  2296    1
  1723  2297  2298    1
  1724  2297  2299    1
  1725  2297  2300    1
  1726  2301  2302    1
  1727  2301  2303    1
  1728  2301  2304    1
  1729  2305  2306    1
  1730  2305  2307    1
  1731  2305  2308    1
  1732  2309  2310    1
  1733  2309  2311    1
  1734  2309  2312    1
  1735  2313  2314    1
  1736  2313  2315    1
  1737  2313  2316    1
  1738  2317  2318    1
  1739  2317  2319    1
  1740  2317  2320    1
  1741  2321  2322    1
  1742  2321  2323    1
  1743  2321  2324    1
  1744  2325  2326    1
  1745  2325  2327    1
  1746  2325  2328    1
  1747  2329  2330    1
  1748  2329  2331    1
  1749  2329  2332    1
  1750  2333  2334    1
  1751  2333  2335    1
  1752  2333  2336    1
  1753  2337  2338    1
  1754  2337  2339    1
  1755  2337  2340    1
  1756  2341  2342    1
  1757  2341  2343    1
  1758  2341  2344    1
  1759  2345  2346    1
  1760  2345  2347    1
  1761  2345  2348    1
  1762  2349  2350    1
  1763  2349  2351    1
  1764  2349  2352    1
  1765  2353  2354    1
  1766  2353  2355    1
  1767  2353  2356    1
  1768  2357  2358    1
  1769  2357  2359    1
  1770  2357  2360    1
  1771  2361  2362    1
  1772  2361  2363    1
  1773  2361  2364    1
  1774  2365  2366    1
  1775  2365  2367    1
  1776  2365  2368    1
  1777  2369  2370    1
  1778  2369  2371    1
  1779  2369  2372    1
  1780  2373  2374    1
  1781  2373  2375    1
  1782  2373  2376    1
  1783  2377  2378    1
  1784  2377  2379    1
  1785  2377  2380    1
  1786  2381  2382    1
  1787  2381  2383    1
  1788  2381  2384    1
  1789  2385  2386    1
  1790  2385  2387    1
  1791  2385  2388    1
  1792  2389  2390    1
  1793  2389  2391    1
  1794  2389  2392    1
  1795  2393  2394    1
  1796  2393  2395    1
  1797  2393  2396    1
  1798  2397  2398    1
  1799  2397  2399    1
  1800  2397  2400    1
  1801  2401  2402    1
  1802  2401  2403    1
  1803  2401  2404    1
  1804  2405  2406    1
  1805  2405  2407    1
  1806  2405  2408    1
  1807  2409  2410    1
  1808  2409  2411    1
  1809  2409  2412    1
  1810  2413  2414    1
  1811  2413  2415    1
  1812  2413  2416    1
  1813  2417  2418    1
  1814  2417  2419    1
  1815  2417  2420    1
  1816  2421  2422    1
  1817  2421  2423    1
  1818  2421  2424    1
  1819  2425  2426    1
  1820  2425  2427    1
  1821  2425  2428    1
  1822  2429  2430    1
  1823  2429  2431    1
  1824  2429  2432    1
  1825  2433  2434    1
  1826  2433  2435    1
  1827  2433  2436    1
  1828  2437  2438    1
  1829  2437  2439    1
  1830  2437  2440    1
  1831  2441  2442    1
  1832  2441  2443    1
  1833  2441  2444    1
  1834  2445  2446    1
  1835  2445  2447    1
  1836  2445  2448    1
  1837  2449  2450    1
  1838  2449  2451    1
  1839  2449  2452    1
  1840  2453  2454    1
  1841  2453  2455    1
  1842  2453  2456    1
  1843  2457  2458    1
  1844  2457  2459    1
  1845  2457  2460    1
  1846  2461  2462    1
  1847  2461  2463    1
  1848  2461  2464    1
  1849  2465  2466    1
  1850  2465  2467    1
  1851  2465  2468    1
  1852  2469  2470    1
  1853  2469  2471    1
  1854  2469  2472    1
  1855  2473  2474    1
  1856  2473  2475    1
  1857  2473  2476    1
  1858  2477  2478    1
  1859  2477  2479    1
  1860  2477  2480    1
  1861  2481  2482    1
  1862  2481  2483    1
  1863  2481  2484    1
  1864  2485  2486    1
  1865  2485  2487    1
  1866  2485  2488    1
  1867  2489  2490    1
  1868  2489  2491    1
  1869  2489  2492    1
  1870  2493  2494    1
  1871  2493  2495    1
  1872  2493  2496    1
  1873  2497  2498    1
  1874  2497  2499    1
  1875  2497  2500    1
  1876  2501  2502    1
  1877  2501  2503    1
  1878  2501  2504    1
  1879  2505  2506    1
  1880  2505  2507    1
  1881  2505  2508    1
  1882  2509  2510    1
  1883  2509  2511    1
  1884  2509  2512    1
  1885  2513  2514    1
  1886  2513  2515    1
  1887  2513  2516    1
  1888  2517  2518    1
  1889  2517  2519    1
  1890  2517  2520    1
  1891  2521  2522    1
  1892  2521  2523    1
  1893  2521  2524    1
  1894  2525  2526    1
  1895  2525  2527    1
  1896  2525  2528    1
  1897  2529  2530    1
  1898  2529  2531    1
  1899  2529  2532    1
  1900  2533  2534    1
  1901  2533  2535    1
  1902  2533  2536    1
  1903  2537  2538    1
  1904  2537  2539    1
  1905  2537  2540    1
  1906  2541  2542    1
  1907  2541  2543    1
  1908  2541  2544    1
  1909  2545  2546    1
  1910  2545  2547    1
  1911  2545  2548    1
  1912  2549  2550    1
  1913  2549  2551    1
  1914  2549  2552    1
  1915  2553  2554    1
  1916  2553  2555    1
  1917  2553  2556    1
  1918  2557  2558    1
  1919  2557  2559    1
  1920  2557  2560    1
  1921  2561  2562    1
  1922  2561  2563    1
  1923  2561  2564    1
  1924  2565  2566    1
  1925  2565  2567    1
  1926  2565  2568    1
  1927  2569  2570    1
  1928  2569  2571    1
  1929  2569  2572    1
  1930  2573  2574    1
  1931  2573  2575    1
  1932  2573  2576    1
  1933  2577  2578    1
  1934  2577  2579    1
  1935  2577  2580    1
  1936  2581  2582    1
  1937  2581  2583    1
  1938  2581  2584    1
  1939  2585  2586    1
  1940  2585  2587    1
  1941  2585  2588    1
  1942  2589  2590    1
  1943  2589  2591    1
  1944  2589  2592    1
  1945  2593  2594    1
  1946  2593  2595    1
  1947  2593  2596    1
  1948  2597  2598    1
  1949  2597  2599    1
  1950  2597  2600    1
  1951  2601  2602    1
  1952  2601  2603    1
  1953  2601  2604    1
  1954  2605  2606    1
  1955  2605  2607    1
  1956  2605  2608    1
  1957  2609  2610    1
  1958  2609  2611    1
  1959  2609  2612    1
  1960  2613  2614    1
  1961  2613  2615    1
  1962  2613  2616    1
  1963  2617  2618    1
  1964  2617  2619    1
  1965  2617  2620    1
  1966  2621  2622    1
  1967  2621  2623    1
  1968  2621  2624    1
  1969  2625  2626    1
  1970  2625  2627    1
  1971  2625  2628    1
  1972  2629  2630    1
  1973  2629  2631    1
  1974  2629  2632    1
  1975  2633  2634    1
  1976  2633  2635    1
  1977  2633  2636    1
  1978  2637  2638    1
  1979  2637  2639    1
  1980  2637  2640    1
  1981  2641  2642    1
  1982  2641  2643    1
  1983  2641  2644    1
  1984  2645  2646    1
  1985  2645  2647    1
  1986  2645  2648    1
  1987  2649  2650    1
  1988  2649  2651    1
  1989  2649  2652    1
  1990  2653  2654    1
  1991  2653  2655    1
  1992  2653  2656    1
  1993  2657  2658    1
  1994  2657  2659    1
  1995  2657  2660    1
  1996  2661  2662    1
  1997  2661  2663    1
  1998  2661  2664    1
  1999  2665  2666    1
  2000  2665  2667    1
  2001  2665  2668    1
  2002  2669  2670    1
  2003  2669  2671    1
  2004  2669  2672    1
  2005  2673  2674    1
  2006  2673  2675    1
  2007  2673  2676    1
  2008  2677  2678    1
  2009  2677  2679    1
  2010  2677  2680    1
  2011  2681  2682    1
  2012  2681  2683    1
  2013  2681  2684    1
  2014  2685  2686    1
  2015  2685  2687    1
  2016  2685  2688    1
  2017  2689  2690    1
  2018  2689  2691    1
  2019  2689  2692    1
  2020  2693  2694    1
  2021  2693  2695    1
  2022  2693  2696    1
  2023  2697  2698    1
  2024  2697  2699    1
  2025  2697  2700    1
  2026  2701  2702    1
  2027  2701  2703    1
  2028  2701  2704    1
  2029  2705  2706    1
  2030  2705  2707    1
  2031  2705  2708    1
  2032  2709  2710    1
  2033  2709  2711    1
  2034  2709  2712    1
  2035  2713  2714    1
  2036  2713  2715    1
  2037  2713  2716    1
  2038  2717  2718    1
  2039  2717  2719    1
  2040  2717  2720    1
  2041  2721  2722    1
  2042  2721  2723    1
  2043  2721  2724    1
  2044  2725  2726    1
  2045  2725  2727    1
  2046  2725  2728    1
  2047  2729  2730    1
  2048  2729  2731    1
  2049  2729  2732    1
  2050  2733  2734    1
  2051  2733  2735    1
  2052  2733  2736    1
  2053  2737  2738    1
  2054  2737  2739    1
  2055  2737  2740    1
  2056  2741  2742    1
  2057  2741  2743    1
  2058  2741  2744    1
  2059  2745  2746    1
  2060  2745  2747    1
  2061  2745  2748    1
  2062  2749  2750    1
  2063  2749  2751    1
  2064  2749  2752    1
  2065  2753  2754    1
  2066  2753  2755    1
  2067  2753  2756    1
  2068  2757  2758    1
  2069  2757  2759    1
  2070  2757  2760    1
  2071  2761  2762    1
  2072  2761  2763    1
  2073  2761  2764    1
  2074  2765  2766    1
  2075  2765  2767    1
  2076  2765  2768    1
  2077  2769  2770    1
  2078  2769  2771    1
  2079  2769  2772    1
  2080  2773  2774    1
  2081  2773  2775    1
  2082  2773  2776    1
  2083  2777  2778    1
  2084  2777  2779    1
  2085  2777  2780    1
  2086  2781  2782    1
  2087  2781  2783    1
  2088  2781  2784    1
  2089  2785  2786    1
  2090  2785  2787    1
  2091  2785  2788    1
  2092  2789  2790    1
  2093  2789  2791    1
  2094  2789  2792    1
  2095  2793  2794    1
  2096  2793  2795    1
  2097  2793  2796    1
  2098  2797  2798    1
  2099  2797  2799    1
  2100  2797  2800    1
  2101  2801  2802    1
  2102  2801  2803    1
  2103  2801  2804    1
  2104  2805  2806    1
  2105  2805  2807    1
  2106  2805  2808    1
  2107  2809  2810    1
  2108  2809  2811    1
  2109  2809  2812    1
  2110  2813  2814    1
  2111  2813  2815    1
  2112  2813  2816    1
  2113  2817  2818    1
  2114  2817  2819    1
  2115  2817  2820    1
  2116  2821  2822    1
  2117  2821  2823    1
  2118  2821  2824    1
  2119  2825  2826    1
  2120  2825  2827    1
  2121  2825  2828    1
  2122  2829  2830    1
  2123  2829  2831    1
  2124  2829  2832    1
  2125  2833  2834    1
  2126  2833  2835    1
  2127  2833  2836    1
  2128  2837  2838    1
  2129  2837  2839    1
  2130  2837  2840    1
  2131  2841  2842    1
  2132  2841  2843    1
  2133  2841  2844    1
  2134  2845  2846    1
  2135  2845  2847    1
  2136  2845  2848    1
  2137  2849  2850    1
  2138  2849  2851    1
  2139  2849  2852    1
  2140  2853  2854    1
  2141  2853  2855    1
  2142  2853  2856    1
  2143  2857  2858    1
  2144  2857  2859    1
  2145  2857  2860    1
  2146  2861  2862    1
  2147  2861  2863    1
  2148  2861  2864    1
  2149  2865  2866    1
  2150  2865  2867    1
  2151  2865  2868    1
  2152  2869  2870    1
  2153  2869  2871    1
  2154  2869  2872    1
  2155  2873  2874    1
  2156  2873  2875    1
  2157  2873  2876    1
  2158  2877  2878    1
  2159  2877  2879    1
  2160  2877  2880    1
  2161  2881  2882    1
  2162  2881  2883    1
  2163  2881  2884    1
  2164  2885  2886    1
  2165  2885  2887    1
  2166  2885  2888    1
  2167  2889  2890    1
  2168  2889  2891    1
  2169  2889  2892    1
  2170  2893  2894    1
  2171  2893  2895    1
  2172  2893  2896    1
  2173  2897  2898    1
  2174  2897  2899    1
  2175  2897  2900    1
  2176  2901  2902    1
  2177  2901  2903    1
  2178  2901  2904    1
  2179  2905  2906    1
  2180  2905  2907    1
  2181  2905  2908    1
  2182  2909  2910    1
  2183  2909  2911    1
  2184  2909  2912    1
  2185  2913  2914    1
  2186  2913  2915    1
  2187  2913  2916    1
  2188  2917  2918    1
  2189  2917  2919    1
  2190  2917  2920    1
  2191  2921  2922    1
  2192  2921  2923    1
  2193  2921  2924    1
  2194  2925  2926    1
  2195  2925  2927    1
  2196  2925  2928    1
  2197  2929  2930    1
  2198  2929  2931    1
  2199  2929  2932    1
  2200  2933  2934    1
  2201  2933  2935    1
  2202  2933  2936    1
  2203  2937  2938    1
  2204  2937  2939    1
  2205  2937  2940    1
  2206  2941  2942    1
  2207  2941  2943    1
  2208  2941  2944    1
  2209  2945  2946    1
  2210  2945  2947    1
  2211  2945  2948    1
  2212  2949  2950    1
  2213  2949  2951    1
  2214  2949  2952    1
  2215  2953  2954    1
  2216  2953  2955    1
  2217  2953  2956    1
  2218  2957  2958    1
  2219  2957  2959    1
  2220  2957  2960    1
  2221  2961  2962    1
  2222  2961  2963    1
  2223  2961  2964    1
  2224  2965  2966    1
  2225  2965  2967    1
  2226  2965  2968    1
  2227  2969  2970    1
  2228  2969  2971    1
  2229  2969  2972    1
  2230  2973  2974    1
  2231  2973  2975    1
  2232  2973  2976    1
  2233  2977  2978    1
  2234  2977  2979    1
  2235  2977  2980    1
  2236  2981  2982    1
  2237  2981  2983    1
  2238  2981  2984    1
  2239  2985  2986    1
  2240  2985  2987    1
  2241  2985  2988    1
  2242  2989  2990    1
  2243  2989  2991    1
  2244  2989  2992    1
  2245  2993  2994    1
  2246  2993  2995    1
  2247  2993  2996    1
  2248  2997  2998    1
  2249  2997  2999    1
  2250  2997  3000    1
  2251  3001  3002    1
  2252  3001  3003    1
  2253  3001  3004    1
  2254  3005  3006    1
  2255  3005  3007    1
  2256  3005  3008    1
  2257  3009  3010    1
  2258  3009  3011    1
  2259  3009  3012    1
  2260  3013  3014    1
  2261  3013  3015    1
  2262  3013  3016    1
  2263  3017  3018    1
  2264  3017  3019    1
  2265  3017  3020    1
  2266  3021  3022    1
  2267  3021  3023    1
  2268  3021  3024    1
  2269  3025  3026    1
  2270  3025  3027    1
  2271  3025  3028    1
  2272  3029  3030    1
  2273  3029  3031    1
  2274  3029  3032    1
  2275  3033  3034    1
  2276  3033  3035    1
  2277  3033  3036    1
  2278  3037  3038    1
  2279  3037  3039    1
  2280  3037  3040    1
  2281  3041  3042    1
  2282  3041  3043    1
  2283  3041  3044    1
  2284  3045  3046    1
  2285  3045  3047    1
  2286  3045  3048    1
  2287  3049  3050    1
  2288  3049  3051    1
  2289  3049  3052    1
  2290  3053  3054    1
  2291  3053  3055    1
  2292  3053  3056    1
  2293  3057  3058    1
  2294  3057  3059    1
  2295  3057  3060    1
  2296  3061  3062    1
  2297  3061  3063    1
  2298  3061  3064    1
  2299  3065  3066    1
  2300  3065  3067    1
  2301  3065  3068    1
  2302  3069  3070    1
  2303  3069  3071    1
  2304  3069  3072    1
  2305  3073  3074    1
  2306  3073  3075    1
  2307  3073  3076    1
  2308  3077  3078    1
  2309  3077  3079    1
  2310  3077  3080    1
  2311  3081  3082    1
  2312  3081  3083    1
  2313  3081  3084    1
  2314  3085  3086    1
  2315  3085  3087    1
  2316  3085  3088    1
  2317  3089  3090    1
  2318  3089  3091    1
  2319  3089  3092    1
  2320  3093  3094    1
  2321  3093  3095    1
  2322  3093  3096    1
  2323  3097  3098    1
  2324  3097  3099    1
  2325  3097  3100    1
  2326  3101  3102    1
  2327  3101  3103    1
  2328  3101  3104    1
  2329  3105  3106    1
  2330  3105  3107    1
  2331  3105  3108    1
  2332  3109  3110    1
  2333  3109  3111    1
  2334  3109  3112    1
  2335  3113  3114    1
  2336  3113  3115    1
  2337  3113  3116    1
  2338  3117  3118    1
  2339  3117  3119    1
  2340  3117  3120    1
  2341  3121  3122    1
  2342  3121  3123    1
  2343  3121  3124    1
  2344  3125  3126    1
  2345  3125  3127    1
  2346  3125  3128    1
  2347  3129  3130    1
  2348  3129  3131    1
  2349  3129  3132    1
  2350  3133  3134    1
  2351  3133  3135    1
  2352  3133  3136    1
  2353  3137  3138    1
  2354  3137  3139    1
  2355  3137  3140    1
  2356  3141  3142    1
  2357  3141  3143    1
  2358  3141  3144    1
  2359  3145  3146    1
  2360  3145  3147    1
  2361  3145  3148    1
  2362  3149  3150    1
  2363  3149  3151    1
  2364  3149  3152    1
  2365  3153  3154    1
  2366  3153  3155    1
  2367  3153  3156    1
  2368  3157  3158    1
  2369  3157  3159    1
  2370  3157  3160    1
  2371  3161  3162    1
  2372  3161  3163    1
  2373  3161  3164    1
  2374  3165  3166    1
  2375  3165  3167    1
  2376  3165  3168    1
  2377  3169  3170    1
  2378  3169  3171    1
  2379  3169  3172    1
  2380  3173  3174    1
  2381  3173  3175    1
  2382  3173  3176    1
  2383  3177  3178    1
  2384  3177  3179    1
  2385  3177  3180    1
  2386  3181  3182    1
  2387  3181  3183    1
  2388  3181  3184    1
  2389  3185  3186    1
  2390  3185  3187    1
  2391  3185  3188    1
  2392  3189  3190    1
  2393  3189  3191    1
  2394  3189  3192    1
  2395  3193  3194    1
  2396  3193  3195    1
  2397  3193  3196    1
  2398  3197  3198    1
  2399  3197  3199    1
  2400  3197  3200    1
  2401  3201  3202    1
  2402  3201  3203    1
  2403  3201  3204    1
  2404  3205  3206    1
  2405  3205  3207    1
  2406  3205  3208    1
  2407  3209  3210    1
  2408  3209  3211    1
  2409  3209  3212    1
  2410  3213  3214    1
  2411  3213  3215    1
  2412  3213  3216    1
  2413  3217  3218    1
  2414  3217  3219    1
  2415  3217  3220    1
  2416  3221  3222    1
  2417  3221  3223    1
  2418  3221  3224    1
  2419  3225  3226    1
  2420  3225  3227    1
  2421  3225  3228    1
  2422  3229  3230    1
  2423  3229  3231    1
  2424  3229  3232    1
  2425  3233  3234    1
  2426  3233  3235    1
  2427  3233  3236    1
  2428  3237  3238    1
  2429  3237  3239    1
  2430  3237  3240    1
  2431  3241  3242    1
  2432  3241  3243    1
  2433  3241  3244    1
  2434  3245  3246    1
  2435  3245  3247    1
  2436  3245  3248    1
  2437  3249  3250    1
  2438  3249  3251    1
  2439  3249  3252    1
  2440  3253  3254    1
  2441  3253  3255    1
  2442  3253  3256    1
  2443  3257  3258    1
  2444  3257  3259    1
  2445  3257  3260    1
  2446  3261  3262    1
  2447  3261  3263    1
  2448  3261  3264    1
  2449  3265  3266    1
  2450  3265  3267    1
  2451  3265  3268    1
  2452  3269  3270    1
  2453  3269  3271    1
  2454  3269  3272    1
  2455  3273  3274    1
  2456  3273  3275    1
  2457  3273  3276    1
  2458  3277  3278    1
  2459  3277  3279    1
  2460  3277  3280    1
  2461  3281  3282    1
  2462  3281  3283    1
  2463  3281  3284    1
  2464  3285  3286    1
  2465  3285  3287    1
  2466  3285  3288    1
  2467  3289  3290    1
  2468  3289  3291    1
  2469  3289  3292    1
  2470  3293  3294    1
  2471  3293  3295    1
  2472  3293  3296    1
  2473  3297  3298    1
  2474  3297  3299    1
  2475  3297  3300    1
  2476  3301  3302    1
  2477  3301  3303    1
  2478  3301  3304    1
  2479  3305  3306    1
  2480  3305  3307    1
  2481  3305  3308    1
  2482  3309  3310    1
  2483  3309  3311    1
  2484  3309  3312    1
  2485  3313  3314    1
  2486  3313  3315    1
  2487  3313  3316    1
  2488  3317  3318    1
  2489  3317  3319    1
  2490  3317  3320    1
  2491  3321  3322    1
  2492  3321  3323    1
  2493  3321  3324    1
  2494  3325  3326    1
  2495  3325  3327    1
  2496  3325  3328    1
  2497  3329  3330    1
  2498  3329  3331    1
  2499  3329  3332    1
  2500  3333  3334    1
  2501  3333  3335    1
  2502  3333  3336    1
  2503  3337  3338    1
  2504  3337  3339    1
  2505  3337  3340    1
  2506  3341  3342    1
  2507  3341  3343    1
  2508  3341  3344    1
  2509  3345  3346    1
  2510  3345  3347    1
  2511  3345  3348    1
  2512  3349  3350    1
  2513  3349  3351    1
  2514  3349  3352    1
  2515  3353  3354    1
  2516  3353  3355    1
  2517  3353  3356    1
  2518  3357  3358    1
  2519  3357  3359    1
  2520  3357  3360    1
  2521  3361  3362    1
  2522  3361  3363    1
  2523  3361  3364    1
  2524  3365  3366    1
  2525  3365  3367    1
  2526  3365  3368    1
  2527  3369  3370    1
  2528  3369  3371    1
  2529  3369  3372    1
  2530  3373  3374    1
  2531  3373  3375    1
  2532  3373  3376    1
  2533  3377  3378    1
  2534  3377  3379    1
  2535  3377  3380    1
  2536  3381  3382    1
  2537  3381  3383    1
  2538  3381  3384    1
  2539  3385  3386    1
  2540  3385  3387    1
  2541  3385  3388    1
  2542  3389  3390    1
  2543  3389  3391    1
  2544  3389  3392    1
  2545  3393  3394    1
  2546  3393  3395    1
  2547  3393  3396    1
  2548  3397  3398    1
  2549  3397  3399    1
  2550  3397  3400    1
  2551  3401  3402    1
  2552  3401  3403    1
  2553  3401  3404    1
  2554  3405  3406    1
  2555  3405  3407    1
  2556  3405  3408    1
  2557  3409  3410    1
  2558  3409  3411    1
  2559  3409  3412    1
  2560  3413  3414    1
  2561  3413  3415    1
  2562  3413  3416    1
  2563  3417  3418    1
  2564  3417  3419    1
  2565  3417  3420    1
  2566  3421  3422    1
  2567  3421  3423    1
  2568  3421  3424    1
  2569  3425  3426    1
  2570  3425  3427    1
  2571  3425  3428    1
  2572  3429  3430    1
  2573  3429  3431    1
  2574  3429  3432    1
  2575  3433  3434    1
  2576  3433  3435    1
  2577  3433  3436    1
  2578  3437  3438    1
  2579  3437  3439    1
  2580  3437  3440    1
  2581  3441  3442    1
  2582  3441  3443    1
  2583  3441  3444    1
  2584  3445  3446    1
  2585  3445  3447    1
  2586  3445  3448    1
  2587  3449  3450    1
  2588  3449  3451    1
  2589  3449  3452    1
  2590  3453  3454    1
  2591  3453  3455    1
  2592  3453  3456    1
  2593  3457  3458    1
  2594  3457  3459    1
  2595  3457  3460    1
  2596  3461  3462    1
  2597  3461  3463    1
  2598  3461  3464    1
  2599  3465  3466    1
  2600  3465  3467    1
  2601  3465  3468    1
  2602  3469  3470    1
  2603  3469  3471    1
  2604  3469  3472    1
  2605  3473  3474    1
  2606  3473  3475    1
  2607  3473  3476    1
  2608  3477  3478    1
  2609  3477  3479    1
  2610  3477  3480    1
  2611  3481  3482    1
  2612  3481  3483    1
  2613  3481  3484    1
  2614  3485  3486    1
  2615  3485  3487    1
  2616  3485  3488    1
  2617  3489  3490    1
  2618  3489  3491    1
  2619  3489  3492    1
  2620  3493  3494    1
  2621  3493  3495    1
  2622  3493  3496    1
  2623  3497  3498    1
  2624  3497  3499    1
  2625  3497  3500    1
  2626  3501  3502    1
  2627  3501  3503    1
  2628  3501  3504    1
  2629  3505  3506    1
  2630  3505  3507    1
  2631  3505  3508    1
  2632  3509  3510    1
  2633  3509  3511    1
  2634  3509  3512    1
  2635  3513  3514    1
  2636  3513  3515    1
  2637  3513  3516    1
  2638  3517  3518    1
  2639  3517  3519    1
  2640  3517  3520    1
  2641  3521  3522    1
  2642  3521  3523    1
  2643  3521  3524    1
  2644  3525  3526    1
  2645  3525  3527    1
  2646  3525  3528    1
  2647  3529  3530    1
  2648  3529  3531    1
  2649  3529  3532    1
  2650  3533  3534    1
  2651  3533  3535    1
  2652  3533  3536    1
  2653  3537  3538    1
  2654  3537  3539    1
  2655  3537  3540    1
  2656  3541  3542    1
  2657  3541  3543    1
  2658  3541  3544    1
  2659  3545  3546    1
  2660  3545  3547    1
  2661  3545  3548    1
  2662  3549  3550    1
  2663  3549  3551    1
  2664  3549  3552    1
  2665  3553  3554    1
  2666  3553  3555    1
  2667  3553  3556    1
  2668  3557  3558    1
  2669  3557  3559    1
  2670  3557  3560    1
  2671  3561  3562    1
  2672  3561  3563    1
  2673  3561  3564    1
  2674  3565  3566    1
  2675  3565  3567    1
  2676  3565  3568    1
  2677  3569  3570    1
  2678  3569  3571    1
  2679  3569  3572    1
  2680  3573  3574    1
  2681  3573  3575    1
  2682  3573  3576    1
  2683  3577  3578    1
  2684  3577  3579    1
  2685  3577  3580    1
  2686  3581  3582    1
  2687  3581  3583    1
  2688  3581  3584    1
  2689  3585  3586    1
  2690  3585  3587    1
  2691  3585  3588    1
  2692  3589  3590    1
  2693  3589  3591    1
  2694  3589  3592    1
  2695  3593  3594    1
  2696  3593  3595    1
  2697  3593  3596    1
  2698  3597  3598    1
  2699  3597  3599    1
  2700  3597  3600    1
  2701  3601  3602    1
  2702  3601  3603    1
  2703  3601  3604    1
  2704  3605  3606    1
  2705  3605  3607    1
  2706  3605  3608    1
  2707  3609  3610    1
  2708  3609  3611    1
  2709  3609  3612    1
  2710  3613  3614    1
  2711  3613  3615    1
  2712  3613  3616    1
  2713  3617  3618    1
  2714  3617  3619    1
  2715  3617  3620    1
  2716  3621  3622    1
  2717  3621  3623    1
  2718  3621  3624    1
  2719  3625  3626    1
  2720  3625  3627    1
  2721  3625  3628    1
  2722  3629  3630    1
  2723  3629  3631    1
  2724  3629  3632    1
  2725  3633  3634    1
  2726  3633  3635    1
  2727  3633  3636    1
  2728  3637  3638    1
  2729  3637  3639    1
  2730  3637  3640    1
  2731  3641  3642    1
  2732  3641  3643    1
  2733  3641  3644    1
  2734  3645  3646    1
  2735  3645  3647    1
  2736  3645  3648    1
  2737  3649  3650    1
  2738  3649  3651    1
  2739  3649  3652    1
  2740  3653  3654    1
  2741  3653  3655    1
  2742  3653  3656    1
  2743  3657  3658    1
  2744  3657  3659    1
  2745  3657  3660    1
  2746  3661  3662    1
  2747  3661  3663    1
  2748  3661  3664    1
  2749  3665  3666    1
  2750  3665  3667    1
  2751  3665  3668    1
  2752  3669  3670    1
  2753  3669  3671    1
  2754  3669  3672    1
  2755  3673  3674    1
  2756  3673  3675    1
  2757  3673  3676    1
  2758  3677  3678    1
  2759  3677  3679    1
  2760  3677  3680    1
  2761  3681  3682    1
  2762  3681  3683    1
  2763  3681  3684    1
  2764  3685  3686    1
  2765  3685  3687    1
  2766  3685  3688    1
  2767  3689  3690    1
  2768  3689  3691    1
  2769  3689  3692    1
  2770  3693  3694    1
  2771  3693  3695    1
  2772  3693  3696    1
  2773  3697  3698    1
  2774  3697  3699    1
  2775  3697  3700    1
  2776  3701  3702    1
  2777  3701  3703    1
  2778  3701  3704    1
  2779  3705  3706    1
  2780  3705  3707    1
  2781  3705  3708    1
  2782  3709  3710    1
  2783  3709  3711    1
  2784  3709  3712    1
  2785  3713  3714    1
  2786  3713  3715    1
  2787  3713  3716    1
  2788  3717  3718    1
  2789  3717  3719    1
  2790  3717  3720    1
  2791  3721  3722    1
  2792  3721  3723    1
  2793  3721  3724    1
  2794  3725  3726    1
  2795  3725  3727    1
  2796  3725  3728    1
  2797  3729  3730    1
  2798  3729  3731    1
  2799  3729  3732    1
  2800  3733  3734    1
  2801  3733  3735    1
  2802  3733  3736    1
  2803  3737  3738    1
  2804  3737  3739    1
  2805  3737  3740    1
  2806  3741  3742    1
  2807  3741  3743    1
  2808  3741  3744    1
  2809  3745  3746    1
  2810  3745  3747    1
  2811  3745  3748    1
  2812  3749  3750    1
  2813  3749  3751    1
  2814  3749  3752    1
  2815  3753  3754    1
  2816  3753  3755    1
  2817  3753  3756    1
  2818  3757  3758    1
  2819  3757  3759    1
  2820  3757  3760    1
  2821  3761  3762    1
  2822  3761  3763    1
  2823  3761  3764    1
  2824  3765  3766    1
  2825  3765  3767    1
  2826  3765  3768    1
  2827  3769  3770    1
  2828  3769  3771    1
  2829  3769  3772    1
  2830  3773  3774    1
  2831  3773  3775    1
  2832  3773  3776    1
  2833  3777  3778    1
  2834  3777  3779    1
  2835  3777  3780    1
  2836  3781  3782    1
  2837  3781  3783    1
  2838  3781  3784    1
  2839  3785  3786    1
  2840  3785  3787    1
  2841  3785  3788    1
  2842  3789  3790    1
  2843  3789  3791    1
  2844  3789  3792    1
  2845  3793  3794    1
  2846  3793  3795    1
  2847  3793  3796    1
  2848  3797  3798    1
  2849  3797  3799    1
  2850  3797  3800    1
  2851  3801  3802    1
  2852  3801  3803    1
  2853  3801  3804    1
  2854  3805  3806    1
  2855  3805  3807    1
  2856  3805  3808    1
  2857  3809  3810    1
  2858  3809  3811    1
  2859  3809  3812    1
  2860  3813  3814    1
  2861  3813  3815    1
  2862  3813  3816    1
  2863  3817  3818    1
  2864  3817  3819    1
  2865  3817  3820    1
  2866  3821  3822    1
  2867  3821  3823    1
  2868  3821  3824    1
  2869  3825  3826    1
  2870  3825  3827    1
  2871  3825  3828    1
  2872  3829  3830    1
  2873  3829  3831    1
  2874  3829  3832    1
  2875  3833  3834    1
  2876  3833  3835    1
  2877  3833  3836    1
  2878  3837  3838    1
  2879  3837  3839    1
  2880  3837  3840    1
  2881  3841  3842    1
  2882  3841  3843    1
  2883  3841  3844    1
  2884  3845  3846    1
  2885  3845  3847    1
  2886  3845  3848    1
  2887  3849  3850    1
  2888  3849  3851    1
  2889  3849  3852    1
  2890  3853  3854    1
  2891  3853  3855    1
  2892  3853  3856    1
  2893  3857  3858    1
  2894  3857  3859    1
  2895  3857  3860    1
  2896  3861  3862    1
  2897  3861  3863    1
  2898  3861  3864    1
  2899  3865  3866    1
  2900  3865  3867    1
  2901  3865  3868    1
  2902  3869  3870    1
  2903  3869  3871    1
  2904  3869  3872    1
  2905  3873  3874    1
  2906  3873  3875    1
  2907  3873  3876    1
  2908  3877  3878    1
  2909  3877  3879    1
  2910  3877  3880    1
  2911  3881  3882    1
  2912  3881  3883    1
  2913  3881  3884    1
  2914  3885  3886    1
  2915  3885  3887    1
  2916  3885  3888    1
  2917  3889  3890    1
  2918  3889  3891    1
  2919  3889  3892    1
  2920  3893  3894    1
  2921  3893  3895    1
  2922  3893  3896    1
  2923  3897  3898    1
  2924  3897  3899    1
  2925  3897  3900    1
  2926  3901  3902    1
  2927  3901  3903    1
  2928  3901  3904    1
  2929  3905  3906    1
  2930  3905  3907    1
  2931  3905  3908    1
  2932  3909  3910    1
  2933  3909  3911    1
  2934  3909  3912    1
  2935  3913  3914    1
  2936  3913  3915    1
  2937  3913  3916    1
  2938  3917  3918    1
  2939  3917  3919    1
  2940  3917  3920    1
  2941  3921  3922    1
  2942  3921  3923    1
  2943  3921  3924    1
  2944  3925  3926    1
  2945  3925  3927    1
  2946  3925  3928    1
  2947  3929  3930    1
  2948  3929  3931    1
  2949  3929  3932    1
  2950  3933  3934    1
  2951  3933  3935    1
  2952  3933  3936    1
  2953  3937  3938    1
  2954  3937  3939    1
  2955  3937  3940    1
  2956  3941  3942    1
  2957  3941  3943    1
  2958  3941  3944    1
  2959  3945  3946    1
  2960  3945  3947    1
  2961  3945  3948    1
  2962  3949  3950    1
  2963  3949  3951    1
  2964  3949  3952    1
  2965  3953  3954    1
  2966  3953  3955    1
  2967  3953  3956    1
  2968  3957  3958    1
  2969  3957  3959    1
  2970  3957  3960    1
  2971  3961  3962    1
  2972  3961  3963    1
  2973  3961  3964    1
  2974  3965  3966    1
  2975  3965  3967    1
  2976  3965  3968    1
  2977  3969  3970    1
  2978  3969  3971    1
  2979  3969  3972    1
  2980  3973  3974    1
  2981  3973  3975    1
  2982  3973  3976    1
  2983  3977  3978    1
  2984  3977  3979    1
  2985  3977  3980    1
  2986  3981  3982    1
  2987  3981  3983    1
  2988  3981  3984    1
  2989  3985  3986    1
  2990  3985  3987    1
  2991  3985  3988    1
  2992  3989  3990    1
  2993  3989  3991    1
  2994  3989  3992    1
  2995  3993  3994    1
  2996  3993  3995    1
  2997  3993  3996    1
  2998  3997  3998    1
  2999  3997  3999    1
  3000  3997  4000    1
  3001  4001  4002    1
  3002  4001  4003    1
  3003  4001  4004    1
  3004  4005  4006    1
  3005  4005  4007    1
  3006  4005  4008    1
  3007  4009  4010    1
  3008  4009  4011    1
  3009  4009  4012    1
  3010  4013  4014    1
  3011  4013  4015    1
  3012  4013  4016    1
  3013  4017  4018    1
  3014  4017  4019    1
  3015  4017  4020    1
  3016  4021  4022    1
  3017  4021  4023    1
  3018  4021  4024    1
  3019  4025  4026    1
  3020  4025  4027    1
  3021  4025  4028    1
  3022  4029  4030    1
  3023  4029  4031    1
  3024  4029  4032    1
  3025  4033  4034    1
  3026  4033  4035    1
  3027  4033  4036    1
  3028  4037  4038    1
  3029  4037  4039    1
  3030  4037  4040    1
  3031  4041  4042    1
  3032  4041  4043    1
  3033  4041  4044    1
  3034  4045  4046    1
  3035  4045  4047    1
  3036  4045  4048    1
  3037  4049  4050    1
  3038  4049  4051    1
  3039  4049  4052    1
  3040  4053  4054    1
  3041  4053  4055    1
  3042  4053  4056    1
  3043  4057  4058    1
  3044  4057  4059    1
  3045  4057  4060    1
  3046  4061  4062    1
  3047  4061  4063    1
  3048  4061  4064    1
  3049  4065  4066    1
  3050  4065  4067    1
  3051  4065  4068    1
  3052  4069  4070    1
  3053  4069  4071    1
  3054  4069  4072    1
  3055  4073  4074    1
  3056  4073  4075    1
  3057  4073  4076    1
  3058  4077  4078    1
  3059  4077  4079    1
  3060  4077  4080    1
  3061  4081  4082    1
  3062  4081  4083    1
  3063  4081  4084    1
  3064  4085  4086    1
  3065  4085  4087    1
  3066  4085  4088    1
  3067  4089  4090    1
  3068  4089  4091    1
  3069  4089  4092    1
  3070  4093  4094    1
  3071  4093  4095    1
  3072  4093  4096    1
  3073  4097  4098    1
  3074  4097  4099    1
  3075  4097  4100    1
  3076  4101  4102    1
  3077  4101  4103    1
  3078  4101  4104    1
  3079  4105  4106    1
  3080  4105  4107    1
  3081  4105  4108    1
  3082  4109  4110    1
  3083  4109  4111    1
  3084  4109  4112    1
  3085  4113  4114    1
  3086  4113  4115    1
  3087  4113  4116    1
  3088  4117  4118    1
  3089  4117  4119    1
  3090  4117  4120    1
  3091  4121  4122    1
  3092  4121  4123    1
  3093  4121  4124    1
  3094  4125  4126    1
  3095  4125  4127    1
  3096  4125  4128    1
  3097  4129  4130    1
  3098  4129  4131    1
  3099  4129  4132    1
  3100  4133  4134    1
  3101  4133  4135    1
  3102  4133  4136    1
  3103  4137  4138    1
  3104  4137  4139    1
  3105  4137  4140    1
  3106  4141  4142    1
  3107  4141  4143    1
  3108  4141  4144    1
  3109  4145  4146    1
  3110  4145  4147    1
  3111  4145  4148    1
  3112  4149  4150    1
  3113  4149  4151    1
  3114  4149  4152    1
  3115  4153  4154    1
  3116  4153  4155    1
  3117  4153  4156    1
  3118  4157  4158    1
  3119  4157  4159    1
  3120  4157  4160    1
  3121  4161  4162    1
  3122  4161  4163    1
  3123  4161  4164    1
  3124  4165  4166    1
  3125  4165  4167    1
  3126  4165  4168    1
  3127  4169  4170    1
  3128  4169  4171    1
  3129  4169  4172    1
  3130  4173  4174    1
  3131  4173  4175    1
  3132  4173  4176    1
  3133  4177  4178    1
  3134  4177  4179    1
  3135  4177  4180    1
  3136  4181  4182    1
  3137  4181  4183    1
  3138  4181  4184    1
  3139  4185  4186    1
  3140  4185  4187    1
  3141  4185  4188    1
  3142  4189  4190    1
  3143  4189  4191    1
  3144  4189  4192    1
  3145  4193  4194    1
  3146  4193  4195    1
  3147  4193  4196    1
  3148  4197  4198    1
  3149  4197  4199    1
  3150  4197  4200    1
  3151  4201  4202    1
  3152  4201  4203    1
  3153  4201  4204    1
  3154  4205  4206    1
  3155  4205  4207    1
  3156  4205  4208    1
