@<TRIPOS>MOLECULE
*****
 2996 2247 0 0 0
SMALL
GASTEIGER

@<TRIPOS>ATOM
      1 N           0.2440   -0.4285   -0.6275 N.3     1  UNL1       -0.3437
      2 H          -0.1977   -0.1379    0.2436 H       1  UNL1        0.1146
      3 H           0.9696    0.2611   -0.8182 H       1  UNL1        0.1146
      4 H           0.7315   -1.2986   -0.4186 H       1  UNL1        0.1146
      5 N           0.2440   -0.4285    1.8372 N.3     2  UNL2       -0.3437
      6 H          -0.1977   -0.1379    2.7083 H       2  UNL2        0.1146
      7 H           0.9696    0.2611    1.6465 H       2  UNL2        0.1146
      8 H           0.7315   -1.2986    2.0461 H       2  UNL2        0.1146
      9 N           0.2440   -0.4285    4.3020 N.3     3  UNL3       -0.3437
     10 H          -0.1977   -0.1379    5.1731 H       3  UNL3        0.1146
     11 H           0.9696    0.2611    4.1113 H       3  UNL3        0.1146
     12 H           0.7315   -1.2986    4.5109 H       3  UNL3        0.1146
     13 N           0.2440   -0.4285    6.7668 N.3     4  UNL4       -0.3437
     14 H          -0.1977   -0.1379    7.6379 H       4  UNL4        0.1146
     15 H           0.9696    0.2611    6.5761 H       4  UNL4        0.1146
     16 H           0.7315   -1.2986    6.9757 H       4  UNL4        0.1146
     17 N           0.1885   -0.2423    9.4777 N.3     5  UNL5       -0.3437
     18 H           0.6046   -0.4609   10.3818 H       5  UNL5        0.1146
     19 H           0.9125    0.2364    8.9436 H       5  UNL5        0.1146
     20 H           0.0416   -1.1369    9.0124 H       5  UNL5        0.1146
     21 N           0.1885   -0.2423   11.9424 N.3     6  UNL6       -0.3437
     22 H           0.6046   -0.4609   12.8466 H       6  UNL6        0.1146
     23 H           0.9125    0.2364   11.4084 H       6  UNL6        0.1146
     24 H           0.0416   -1.1369   11.4772 H       6  UNL6        0.1146
     25 N           0.1602   -0.4114   16.2798 N.3     7  UNL7       -0.3437
     26 H           0.2979   -1.0050   17.0966 H       7  UNL7        0.1146
     27 H           0.4393    0.5265   16.5639 H       7  UNL7        0.1146
     28 H           0.8499   -0.7138   15.5934 H       7  UNL7        0.1146
     29 N           0.2440   -0.5626   19.0033 N.3     8  UNL8       -0.3437
     30 H          -0.1977   -0.0386   18.2492 H       8  UNL8        0.1146
     31 H           0.9696   -1.1281   18.5649 H       8  UNL8        0.1146
     32 H           0.7315    0.1255   19.5754 H       8  UNL8        0.1146
     33 N           0.2440   -0.5626   23.9328 N.3     9  UNL9       -0.3437
     34 H          -0.1977   -0.0386   23.1787 H       9  UNL9        0.1146
     35 H           0.9696   -1.1281   23.4945 H       9  UNL9        0.1146
     36 H           0.7315    0.1255   24.5049 H       9  UNL9        0.1146
     37 N           0.2440   -0.2063   26.3535 N.3    10  UNL10      -0.3437
     38 H          -0.1977   -1.0781   26.0650 H      10  UNL10       0.1146
     39 H           0.9696   -0.4663   27.0201 H      10  UNL10       0.1146
     40 H           0.7315    0.1470   25.5314 H      10  UNL10       0.1146
     41 N           0.2440   -0.4285   28.4849 N.3    11  UNL11      -0.3437
     42 H          -0.1977   -0.1379   29.3560 H      11  UNL11       0.1146
     43 H           0.9696    0.2611   28.2942 H      11  UNL11       0.1146
     44 H           0.7315   -1.2986   28.6938 H      11  UNL11       0.1146
     45 N           0.2075   -0.5213   31.0295 N.3    12  UNL12      -0.3437
     46 H           0.3353   -0.9045   31.9651 H      12  UNL12       0.1146
     47 H           0.1124    0.4862   31.1493 H      12  UNL12       0.1146
     48 H           1.0921   -0.6641   30.5443 H      12  UNL12       0.1146
     49 N           0.4506   -0.2130   33.4090 N.3    13  UNL13      -0.3437
     50 H          -0.1709    0.1098   34.1492 H      13  UNL13       0.1146
     51 H           1.3567   -0.3654   33.8496 H      13  UNL13       0.1146
     52 H           0.1109   -1.1351   33.1394 H      13  UNL13       0.1146
     53 N           0.2440    2.4254    1.7058 N.3    14  UNL14      -0.3437
     54 H          -0.1977    1.5536    1.4173 H      14  UNL14       0.1146
     55 H           0.9696    2.1655    2.3724 H      14  UNL14       0.1146
     56 H           0.7315    2.7788    0.8837 H      14  UNL14       0.1146
     57 N           0.2440    2.4254    4.1706 N.3    15  UNL15      -0.3437
     58 H          -0.1977    1.5536    3.8821 H      15  UNL15       0.1146
     59 H           0.9696    2.1655    4.8372 H      15  UNL15       0.1146
     60 H           0.7315    2.7788    3.3485 H      15  UNL15       0.1146
     61 N           0.2440    2.4254    6.6353 N.3    16  UNL16      -0.3437
     62 H          -0.1977    1.5536    6.3468 H      16  UNL16       0.1146
     63 H           0.9696    2.1655    7.3019 H      16  UNL16       0.1146
     64 H           0.7315    2.7788    5.8132 H      16  UNL16       0.1146
     65 N           0.2440    2.4254    9.1001 N.3    17  UNL17      -0.3437
     66 H          -0.1977    1.5536    8.8116 H      17  UNL17       0.1146
     67 H           0.9696    2.1655    9.7667 H      17  UNL17       0.1146
     68 H           0.7315    2.7788    8.2780 H      17  UNL17       0.1146
     69 N           0.2440    2.4254   11.5649 N.3    18  UNL18      -0.3437
     70 H          -0.1977    1.5536   11.2764 H      18  UNL18       0.1146
     71 H           0.9696    2.1655   12.2315 H      18  UNL18       0.1146
     72 H           0.7315    2.7788   10.7428 H      18  UNL18       0.1146
     73 N           0.2440    2.4254   14.0296 N.3    19  UNL19      -0.3437
     74 H          -0.1977    1.5536   13.7411 H      19  UNL19       0.1146
     75 H           0.9696    2.1655   14.6962 H      19  UNL19       0.1146
     76 H           0.7315    2.7788   13.2075 H      19  UNL19       0.1146
     77 N           0.2440    2.0692   19.0033 N.3    20  UNL20      -0.3437
     78 H          -0.1977    2.5932   18.2492 H      20  UNL20       0.1146
     79 H           0.9696    1.5037   18.5649 H      20  UNL20       0.1146
     80 H           0.7315    2.7573   19.5754 H      20  UNL20       0.1146
     81 N           0.5743    0.0928   21.0906 N.3    21  UNL21      -0.3437
     82 H           0.6058   -0.4350   21.9617 H      21  UNL21       0.1146
     83 H          -0.4124    0.2614   20.8999 H      21  UNL21       0.1146
     84 H           0.9796    1.0041   21.2995 H      21  UNL21       0.1146
     85 N           0.2440    2.4254   23.8887 N.3    22  UNL22      -0.3437
     86 H          -0.1977    1.5536   23.6002 H      22  UNL22       0.1146
     87 H           0.9696    2.1655   24.5553 H      22  UNL22       0.1146
     88 H           0.7315    2.7788   23.0666 H      22  UNL22       0.1146
     89 N           0.2440    2.4254   26.3535 N.3    23  UNL23      -0.3437
     90 H          -0.1977    1.5536   26.0650 H      23  UNL23       0.1146
     91 H           0.9696    2.1655   27.0201 H      23  UNL23       0.1146
     92 H           0.7315    2.7788   25.5314 H      23  UNL23       0.1146
     93 N           0.2440    2.0692   31.3271 N.3    24  UNL24      -0.3437
     94 H          -0.1977    2.5932   30.5730 H      24  UNL24       0.1146
     95 H           0.9696    1.5037   30.8888 H      24  UNL24       0.1146
     96 H           0.7315    2.7573   31.8992 H      24  UNL24       0.1146
     97 N           0.2440    2.4254   33.7478 N.3    25  UNL25      -0.3437
     98 H          -0.1977    1.5536   33.4593 H      25  UNL25       0.1146
     99 H           0.9696    2.1655   34.4144 H      25  UNL25       0.1146
    100 H           0.7315    2.7788   32.9257 H      25  UNL25       0.1146
    101 N           0.5743    0.0928   35.8793 N.3    26  UNL26      -0.3437
    102 H           0.6058   -0.4350   36.7504 H      26  UNL26       0.1146
    103 H          -0.4124    0.2614   35.6886 H      26  UNL26       0.1146
    104 H           0.9796    1.0041   36.0882 H      26  UNL26       0.1146
    105 N           0.2440    5.0572    1.7058 N.3    27  UNL27      -0.3437
    106 H          -0.1977    4.1854    1.4173 H      27  UNL27       0.1146
    107 H           0.9696    4.7973    2.3724 H      27  UNL27       0.1146
    108 H           0.7315    5.4106    0.8837 H      27  UNL27       0.1146
    109 N           0.2440    5.0572    4.1706 N.3    28  UNL28      -0.3437
    110 H          -0.1977    4.1854    3.8821 H      28  UNL28       0.1146
    111 H           0.9696    4.7973    4.8372 H      28  UNL28       0.1146
    112 H           0.7315    5.4106    3.3485 H      28  UNL28       0.1146
    113 N           0.2440    5.0572    6.6353 N.3    29  UNL29      -0.3437
    114 H          -0.1977    4.1854    6.3468 H      29  UNL29       0.1146
    115 H           0.9696    4.7973    7.3019 H      29  UNL29       0.1146
    116 H           0.7315    5.4106    5.8132 H      29  UNL29       0.1146
    117 N           0.2440    5.0572    9.1001 N.3    30  UNL30      -0.3437
    118 H          -0.1977    4.1854    8.8116 H      30  UNL30       0.1146
    119 H           0.9696    4.7973    9.7667 H      30  UNL30       0.1146
    120 H           0.7315    5.4106    8.2780 H      30  UNL30       0.1146
    121 N           0.2440    5.0572   11.5649 N.3    31  UNL31      -0.3437
    122 H          -0.1977    4.1854   11.2764 H      31  UNL31       0.1146
    123 H           0.9696    4.7973   12.2315 H      31  UNL31       0.1146
    124 H           0.7315    5.4106   10.7428 H      31  UNL31       0.1146
    125 N           0.2440    5.0572   14.0296 N.3    32  UNL32      -0.3437
    126 H          -0.1977    4.1854   13.7411 H      32  UNL32       0.1146
    127 H           0.9696    4.7973   14.6962 H      32  UNL32       0.1146
    128 H           0.7315    5.4106   13.2075 H      32  UNL32       0.1146
    129 N           0.2440    5.0572   16.4944 N.3    33  UNL33      -0.3437
    130 H          -0.1977    4.1854   16.2059 H      33  UNL33       0.1146
    131 H           0.9696    4.7973   17.1610 H      33  UNL33       0.1146
    132 H           0.7315    5.4106   15.6723 H      33  UNL33       0.1146
    133 N           0.2440    2.7010   21.4681 N.3    34  UNL34      -0.3437
    134 H          -0.1977    3.2250   20.7139 H      34  UNL34       0.1146
    135 H           0.9696    2.1355   21.0297 H      34  UNL34       0.1146
    136 H           0.7315    3.3891   22.0401 H      34  UNL34       0.1146
    137 N           0.2440    5.0572   23.8887 N.3    35  UNL35      -0.3437
    138 H          -0.1977    4.1854   23.6002 H      35  UNL35       0.1146
    139 H           0.9696    4.7973   24.5553 H      35  UNL35       0.1146
    140 H           0.7315    5.4106   23.0666 H      35  UNL35       0.1146
    141 N           0.2440    5.0572   26.3535 N.3    36  UNL36      -0.3437
    142 H          -0.1977    4.1854   26.0650 H      36  UNL36       0.1146
    143 H           0.9696    4.7973   27.0201 H      36  UNL36       0.1146
    144 H           0.7315    5.4106   25.5314 H      36  UNL36       0.1146
    145 N           0.2075    4.7423   28.5648 N.3    37  UNL37      -0.3437
    146 H           0.3353    4.3591   29.5003 H      37  UNL37       0.1146
    147 H           0.1124    5.7498   28.6845 H      37  UNL37       0.1146
    148 H           1.0921    4.5994   28.0795 H      37  UNL37       0.1146
    149 N           0.4506    5.0505   33.4090 N.3    38  UNL38      -0.3437
    150 H          -0.1709    5.3734   34.1492 H      38  UNL38       0.1146
    151 H           1.3567    4.8982   33.8496 H      38  UNL38       0.1146
    152 H           0.1109    4.1285   33.1394 H      38  UNL38       0.1146
    153 N           0.5775    2.6092   36.1593 N.3    39  UNL39      -0.3437
    154 H          -0.4102    2.5773   36.4082 H      39  UNL39       0.1146
    155 H           0.6105    2.8625   35.1728 H      39  UNL39       0.1146
    156 H           0.9694    3.4016   36.6660 H      39  UNL39       0.1146
    157 N           0.2440    7.3328    4.2147 N.3    40  UNL40      -0.3437
    158 H          -0.1977    7.8568    3.4605 H      40  UNL40       0.1146
    159 H           0.9696    6.7673    3.7763 H      40  UNL40       0.1146
    160 H           0.7315    8.0209    4.7867 H      40  UNL40       0.1146
    161 N           0.2440    7.6890    6.6353 N.3    41  UNL41      -0.3437
    162 H          -0.1977    6.8172    6.3468 H      41  UNL41       0.1146
    163 H           0.9696    7.4291    7.3019 H      41  UNL41       0.1146
    164 H           0.7315    8.0424    5.8132 H      41  UNL41       0.1146
    165 N           0.2440    7.6890    9.1001 N.3    42  UNL42      -0.3437
    166 H          -0.1977    6.8172    8.8116 H      42  UNL42       0.1146
    167 H           0.9696    7.4291    9.7667 H      42  UNL42       0.1146
    168 H           0.7315    8.0424    8.2780 H      42  UNL42       0.1146
    169 N           0.2440    7.6890   11.5649 N.3    43  UNL43      -0.3437
    170 H          -0.1977    6.8172   11.2764 H      43  UNL43       0.1146
    171 H           0.9696    7.4291   12.2315 H      43  UNL43       0.1146
    172 H           0.7315    8.0424   10.7428 H      43  UNL43       0.1146
    173 N           0.2440    7.4669   13.6963 N.3    44  UNL44      -0.3437
    174 H          -0.1977    7.7575   14.5674 H      44  UNL44       0.1146
    175 H           0.9696    8.1565   13.5056 H      44  UNL44       0.1146
    176 H           0.7315    6.5968   13.9052 H      44  UNL44       0.1146
    177 N           0.2440    7.4669   16.1611 N.3    45  UNL45      -0.3437
    178 H          -0.1977    7.7575   17.0322 H      45  UNL45       0.1146
    179 H           0.9696    8.1565   15.9704 H      45  UNL45       0.1146
    180 H           0.7315    6.5968   16.3700 H      45  UNL45       0.1146
    181 N           0.2440    7.3328   19.0033 N.3    46  UNL46      -0.3437
    182 H          -0.1977    7.8568   18.2492 H      46  UNL46       0.1146
    183 H           0.9696    6.7673   18.5649 H      46  UNL46       0.1146
    184 H           0.7315    8.0209   19.5754 H      46  UNL46       0.1146
    185 N           0.2440    5.6890   21.4240 N.3    47  UNL47      -0.3437
    186 H          -0.1977    4.8172   21.1355 H      47  UNL47       0.1146
    187 H           0.9696    5.4291   22.0906 H      47  UNL47       0.1146
    188 H           0.7315    6.0424   20.6019 H      47  UNL47       0.1146
    189 N           0.4506    7.6823   23.5499 N.3    48  UNL48      -0.3437
    190 H          -0.1709    8.0052   24.2902 H      48  UNL48       0.1146
    191 H           1.3567    7.5300   23.9905 H      48  UNL48       0.1146
    192 H           0.1109    6.7602   23.2803 H      48  UNL48       0.1146
    193 N           0.4506    7.6823   28.4795 N.3    49  UNL49      -0.3437
    194 H          -0.1709    8.0052   29.2197 H      49  UNL49       0.1146
    195 H           1.3567    7.5300   28.9201 H      49  UNL49       0.1146
    196 H           0.1109    6.7602   28.2098 H      49  UNL49       0.1146
    197 N           0.2075    7.3741   31.0295 N.3    50  UNL50      -0.3437
    198 H           0.3353    6.9909   31.9651 H      50  UNL50       0.1146
    199 H           0.1124    8.3816   31.1493 H      50  UNL50       0.1146
    200 H           1.0921    7.2312   30.5443 H      50  UNL50       0.1146
    201 N           0.2440    7.6890   33.7478 N.3    51  UNL51      -0.3437
    202 H          -0.1977    6.8172   33.4593 H      51  UNL51       0.1146
    203 H           0.9696    7.4291   34.4144 H      51  UNL51       0.1146
    204 H           0.7315    8.0424   32.9257 H      51  UNL51       0.1146
    205 N           0.2440    5.6890   36.2126 N.3    52  UNL52      -0.3437
    206 H          -0.1977    4.8172   35.9241 H      52  UNL52       0.1146
    207 H           0.9696    5.4291   36.8792 H      52  UNL52       0.1146
    208 H           0.7315    6.0424   35.3905 H      52  UNL52       0.1146
    209 N           0.2440   10.0987   -1.0923 N.3    53  UNL53      -0.3437
    210 H          -0.1977   10.3893   -0.2212 H      53  UNL53       0.1146
    211 H           0.9696   10.7883   -1.2830 H      53  UNL53       0.1146
    212 H           0.7315    9.2286   -0.8834 H      53  UNL53       0.1146
    213 N           0.2440   10.0987    1.3725 N.3    54  UNL54      -0.3437
    214 H          -0.1977   10.3893    2.2436 H      54  UNL54       0.1146
    215 H           0.9696   10.7883    1.1818 H      54  UNL54       0.1146
    216 H           0.7315    9.2286    1.5814 H      54  UNL54       0.1146
    217 N           0.2440   10.0987    3.8372 N.3    55  UNL55      -0.3437
    218 H          -0.1977   10.3893    4.7083 H      55  UNL55       0.1146
    219 H           0.9696   10.7883    3.6465 H      55  UNL55       0.1146
    220 H           0.7315    9.2286    4.0461 H      55  UNL55       0.1146
    221 N           0.2440   10.0987    6.3020 N.3    56  UNL56      -0.3437
    222 H          -0.1977   10.3893    7.1731 H      56  UNL56       0.1146
    223 H           0.9696   10.7883    6.1113 H      56  UNL56       0.1146
    224 H           0.7315    9.2286    6.5109 H      56  UNL56       0.1146
    225 N           0.2440   10.0987    8.7668 N.3    57  UNL57      -0.3437
    226 H          -0.1977   10.3893    9.6379 H      57  UNL57       0.1146
    227 H           0.9696   10.7883    8.5761 H      57  UNL57       0.1146
    228 H           0.7315    9.2286    8.9757 H      57  UNL57       0.1146
    229 N           0.2440   10.0987   11.2316 N.3    58  UNL58      -0.3437
    230 H          -0.1977   10.3893   12.1027 H      58  UNL58       0.1146
    231 H           0.9696   10.7883   11.0409 H      58  UNL58       0.1146
    232 H           0.7315    9.2286   11.4405 H      58  UNL58       0.1146
    233 N           0.2075   10.0059   13.7761 N.3    59  UNL59      -0.3437
    234 H           0.3353    9.6227   14.7117 H      59  UNL59       0.1146
    235 H           0.1124   11.0134   13.8959 H      59  UNL59       0.1146
    236 H           1.0921    9.8630   13.2909 H      59  UNL59       0.1146
    237 N           0.2440    9.9646   16.5385 N.3    60  UNL60      -0.3437
    238 H          -0.1977   10.4886   15.7844 H      60  UNL60       0.1146
    239 H           0.9696    9.3991   16.1002 H      60  UNL60       0.1146
    240 H           0.7315   10.6527   17.1106 H      60  UNL60       0.1146
    241 N           0.2440   10.0987   18.6259 N.3    61  UNL61      -0.3437
    242 H          -0.1977   10.3893   19.4970 H      61  UNL61       0.1146
    243 H           0.9696   10.7883   18.4352 H      61  UNL61       0.1146
    244 H           0.7315    9.2286   18.8348 H      61  UNL61       0.1146
    245 N           0.2224    7.9259   21.3489 N.3    62  UNL62      -0.3437
    246 H           0.2808    8.5842   22.1245 H      62  UNL62       0.1146
    247 H           0.0975    8.4907   20.5100 H      62  UNL62       0.1146
    248 H           1.1465    7.5040   21.2684 H      62  UNL62       0.1146
    249 N           0.2440   10.0987   23.5554 N.3    63  UNL63      -0.3437
    250 H          -0.1977   10.3893   24.4265 H      63  UNL63       0.1146
    251 H           0.9696   10.7883   23.3647 H      63  UNL63       0.1146
    252 H           0.7315    9.2286   23.7643 H      63  UNL63       0.1146
    253 N           0.2440   10.0987   26.0202 N.3    64  UNL64      -0.3437
    254 H          -0.1977   10.3893   26.8913 H      64  UNL64       0.1146
    255 H           0.9696   10.7883   25.8295 H      64  UNL64       0.1146
    256 H           0.7315    9.2286   26.2291 H      64  UNL64       0.1146
    257 N           0.5302   10.2972   28.4849 N.3    65  UNL65      -0.3437
    258 H           1.0273   10.4772   29.3560 H      65  UNL65       0.1146
    259 H           0.6484    9.3032   28.2942 H      65  UNL65       0.1146
    260 H          -0.4587   10.4274   28.6938 H      65  UNL65       0.1146
    261 N           0.2440   10.0987   30.9497 N.3    66  UNL66      -0.3437
    262 H          -0.1977   10.3893   31.8208 H      66  UNL66       0.1146
    263 H           0.9696   10.7883   30.7590 H      66  UNL66       0.1146
    264 H           0.7315    9.2286   31.1586 H      66  UNL66       0.1146
    265 N           0.2440   10.0987   33.4145 N.3    67  UNL67      -0.3437
    266 H          -0.1977   10.3893   34.2856 H      67  UNL67       0.1146
    267 H           0.9696   10.7883   33.2238 H      67  UNL67       0.1146
    268 H           0.7315    9.2286   33.6234 H      67  UNL67       0.1146
    269 N           0.2440   10.0987   35.8793 N.3    68  UNL68      -0.3437
    270 H          -0.1977   10.3893   36.7504 H      68  UNL68       0.1146
    271 H           0.9696   10.7883   35.6886 H      68  UNL68       0.1146
    272 H           0.7315    9.2286   36.0882 H      68  UNL68       0.1146
    273 N           0.2440   12.9526    1.7058 N.3    69  UNL69      -0.3437
    274 H          -0.1977   12.0808    1.4173 H      69  UNL69       0.1146
    275 H           0.9696   12.6927    2.3724 H      69  UNL69       0.1146
    276 H           0.7315   13.3060    0.8837 H      69  UNL69       0.1146
    277 N           0.2440   12.9526    4.1706 N.3    70  UNL70      -0.3437
    278 H          -0.1977   12.0808    3.8821 H      70  UNL70       0.1146
    279 H           0.9696   12.6927    4.8372 H      70  UNL70       0.1146
    280 H           0.7315   13.3060    3.3485 H      70  UNL70       0.1146
    281 N           0.2440   12.9526    6.6353 N.3    71  UNL71      -0.3437
    282 H          -0.1977   12.0808    6.3468 H      71  UNL71       0.1146
    283 H           0.9696   12.6927    7.3019 H      71  UNL71       0.1146
    284 H           0.7315   13.3060    5.8132 H      71  UNL71       0.1146
    285 N           0.2440   12.7305    8.7668 N.3    72  UNL72      -0.3437
    286 H          -0.1977   13.0211    9.6379 H      72  UNL72       0.1146
    287 H           0.9696   13.4201    8.5761 H      72  UNL72       0.1146
    288 H           0.7315   11.8604    8.9757 H      72  UNL72       0.1146
    289 N           0.2440   12.9526   11.5649 N.3    73  UNL73      -0.3437
    290 H          -0.1977   12.0808   11.2764 H      73  UNL73       0.1146
    291 H           0.9696   12.6927   12.2315 H      73  UNL73       0.1146
    292 H           0.7315   13.3060   10.7428 H      73  UNL73       0.1146
    293 N           0.2440   12.7305   13.6963 N.3    74  UNL74      -0.3437
    294 H          -0.1977   13.0211   14.5674 H      74  UNL74       0.1146
    295 H           0.9696   13.4201   13.5056 H      74  UNL74       0.1146
    296 H           0.7315   11.8604   13.9052 H      74  UNL74       0.1146
    297 N           0.2440   12.7305   16.1611 N.3    75  UNL75      -0.3437
    298 H          -0.1977   13.0211   17.0322 H      75  UNL75       0.1146
    299 H           0.9696   13.4201   15.9704 H      75  UNL75       0.1146
    300 H           0.7315   11.8604   16.3700 H      75  UNL75       0.1146
    301 N           0.2440   12.7305   18.6259 N.3    76  UNL76      -0.3437
    302 H          -0.1977   13.0211   19.4970 H      76  UNL76       0.1146
    303 H           0.9696   13.4201   18.4352 H      76  UNL76       0.1146
    304 H           0.7315   11.8604   18.8348 H      76  UNL76       0.1146
    305 N           0.2440   12.7305   21.0906 N.3    77  UNL77      -0.3437
    306 H          -0.1977   13.0211   21.9617 H      77  UNL77       0.1146
    307 H           0.9696   13.4201   20.8999 H      77  UNL77       0.1146
    308 H           0.7315   11.8604   21.2995 H      77  UNL77       0.1146
    309 N           0.2440   12.9526   23.8887 N.3    78  UNL78      -0.3437
    310 H          -0.1977   12.0808   23.6002 H      78  UNL78       0.1146
    311 H           0.9696   12.6927   24.5553 H      78  UNL78       0.1146
    312 H           0.7315   13.3060   23.0666 H      78  UNL78       0.1146
    313 N           0.2440   12.5964   28.8624 N.3    79  UNL79      -0.3437
    314 H          -0.1977   13.1203   28.1082 H      79  UNL79       0.1146
    315 H           0.9696   12.0309   28.4240 H      79  UNL79       0.1146
    316 H           0.7315   13.2845   29.4344 H      79  UNL79       0.1146
    317 N           0.2440   12.7305   30.9497 N.3    80  UNL80      -0.3437
    318 H          -0.1977   13.0211   31.8208 H      80  UNL80       0.1146
    319 H           0.9696   13.4201   30.7590 H      80  UNL80       0.1146
    320 H           0.7315   11.8604   31.1586 H      80  UNL80       0.1146
    321 N           0.2440   12.7305   33.4145 N.3    81  UNL81      -0.3437
    322 H          -0.1977   13.0211   34.2856 H      81  UNL81       0.1146
    323 H           0.9696   13.4201   33.2238 H      81  UNL81       0.1146
    324 H           0.7315   11.8604   33.6234 H      81  UNL81       0.1146
    325 N           0.1602   12.7475   36.9980 N.3    82  UNL82      -0.3437
    326 H           0.2979   12.1539   37.8147 H      82  UNL82       0.1146
    327 H           0.4393   13.6855   37.2821 H      82  UNL82       0.1146
    328 H           0.8499   12.4452   36.3115 H      82  UNL82       0.1146
    329 N           0.2440   15.3623   -1.0923 N.3    83  UNL83      -0.3437
    330 H          -0.1977   15.6529   -0.2212 H      83  UNL83       0.1146
    331 H           0.9696   16.0519   -1.2830 H      83  UNL83       0.1146
    332 H           0.7315   14.4922   -0.8834 H      83  UNL83       0.1146
    333 N           0.4217   16.6167   13.7298 N.3    84  UNL84      -0.3437
    334 H          -0.3844   16.5668   14.3512 H      84  UNL84       0.1146
    335 H           1.2404   16.6615   14.3347 H      84  UNL84       0.1146
    336 H           0.4695   15.7143   13.2589 H      84  UNL84       0.1146
    337 N           0.4217   16.6167   18.6593 N.3    85  UNL85      -0.3437
    338 H          -0.3844   16.5668   19.2807 H      85  UNL85       0.1146
    339 H           1.2404   16.6615   19.2643 H      85  UNL85       0.1146
    340 H           0.4695   15.7143   18.1884 H      85  UNL85       0.1146
    341 N           0.2440   15.3623   26.0202 N.3    86  UNL86      -0.3437
    342 H          -0.1977   15.6529   26.8913 H      86  UNL86       0.1146
    343 H           0.9696   16.0519   25.8295 H      86  UNL86       0.1146
    344 H           0.7315   14.4922   26.2291 H      86  UNL86       0.1146
    345 N           0.4338   16.1322   31.0271 N.3    87  UNL87      -0.3437
    346 H          -0.5007   16.5069   31.1841 H      87  UNL87       0.1146
    347 H           0.9477   16.8582   30.5298 H      87  UNL87       0.1146
    348 H           0.8664   16.0620   31.9471 H      87  UNL87       0.1146
    349 N           0.2440   15.3623   35.8793 N.3    88  UNL88      -0.3437
    350 H          -0.1977   15.6529   36.7504 H      88  UNL88       0.1146
    351 H           0.9696   16.0519   35.6886 H      88  UNL88       0.1146
    352 H           0.7315   14.4922   36.0882 H      88  UNL88       0.1146
    353 N           2.6069   -0.4285   -0.6275 N.3    89  UNL89      -0.3437
    354 H           2.1652   -0.1379    0.2436 H      89  UNL89       0.1146
    355 H           3.3325    0.2611   -0.8182 H      89  UNL89       0.1146
    356 H           3.0944   -1.2986   -0.4186 H      89  UNL89       0.1146
    357 N           2.5853   -0.6012    2.0955 N.3    90  UNL90      -0.3437
    358 H           2.6438    0.0571    2.8711 H      90  UNL90       0.1146
    359 H           2.4605   -0.0365    1.2566 H      90  UNL90       0.1146
    360 H           3.5094   -1.0231    2.0150 H      90  UNL90       0.1146
    361 N           2.6069   -0.5626    4.6794 N.3    91  UNL91      -0.3437
    362 H           2.1652   -0.0386    3.9253 H      91  UNL91       0.1146
    363 H           3.3325   -1.1281    4.2411 H      91  UNL91       0.1146
    364 H           3.0944    0.1255    5.2515 H      91  UNL91       0.1146
    365 N           2.8135   -0.2130   11.2261 N.3    92  UNL92      -0.3437
    366 H           2.1920    0.1098   11.9663 H      92  UNL92       0.1146
    367 H           3.7196   -0.3654   11.6667 H      92  UNL92       0.1146
    368 H           2.4738   -1.1351   10.9564 H      92  UNL92       0.1146
    369 N           2.8135   -0.2130   13.6909 N.3    93  UNL93      -0.3437
    370 H           2.1920    0.1098   14.4311 H      93  UNL93       0.1146
    371 H           3.7196   -0.3654   14.1314 H      93  UNL93       0.1146
    372 H           2.4738   -1.1351   13.4212 H      93  UNL93       0.1146
    373 N           2.8135   -0.2130   18.6204 N.3    94  UNL94      -0.3437
    374 H           2.1920    0.1098   19.3606 H      94  UNL94       0.1146
    375 H           3.7196   -0.3654   19.0610 H      94  UNL94       0.1146
    376 H           2.4738   -1.1351   18.3507 H      94  UNL94       0.1146
    377 N           2.8135   -0.2130   21.0852 N.3    95  UNL95      -0.3437
    378 H           2.1920    0.1098   21.8254 H      95  UNL95       0.1146
    379 H           3.7196   -0.3654   21.5257 H      95  UNL95       0.1146
    380 H           2.4738   -1.1351   20.8155 H      95  UNL95       0.1146
    381 N           2.8135   -0.2130   23.5500 N.3    96  UNL96      -0.3437
    382 H           2.1920    0.1098   24.2902 H      96  UNL96       0.1146
    383 H           3.7196   -0.3654   23.9905 H      96  UNL96       0.1146
    384 H           2.4738   -1.1351   23.2803 H      96  UNL96       0.1146
    385 N           2.5704   -0.5213   26.1000 N.3    97  UNL97      -0.3437
    386 H           2.6982   -0.9045   27.0355 H      97  UNL97       0.1146
    387 H           2.4753    0.4862   26.2197 H      97  UNL97       0.1146
    388 H           3.4550   -0.6641   25.6148 H      97  UNL97       0.1146
    389 N           2.5231   -0.4114   28.6037 N.3    98  UNL98      -0.3437
    390 H           2.6608   -1.0050   29.4204 H      98  UNL98       0.1146
    391 H           2.8022    0.5265   28.8878 H      98  UNL98       0.1146
    392 H           3.2128   -0.7138   27.9172 H      98  UNL98       0.1146
    393 N           2.6069   -0.5626   31.3271 N.3    99  UNL99      -0.3437
    394 H           2.1652   -0.0386   30.5730 H      99  UNL99       0.1146
    395 H           3.3325   -1.1281   30.8888 H      99  UNL99       0.1146
    396 H           3.0944    0.1255   31.8992 H      99  UNL99       0.1146
    397 N           2.6069   -0.2063   33.7478 N.3   100  UNL100     -0.3437
    398 H           2.1652   -1.0781   33.4593 H     100  UNL100      0.1146
    399 H           3.3325   -0.4663   34.4144 H     100  UNL100      0.1146
    400 H           3.0944    0.1470   32.9257 H     100  UNL100      0.1146
    401 N           2.6069    2.4254    1.7058 N.3   101  UNL101     -0.3437
    402 H           2.1652    1.5536    1.4173 H     101  UNL101      0.1146
    403 H           3.3325    2.1655    2.3724 H     101  UNL101      0.1146
    404 H           3.0944    2.7788    0.8837 H     101  UNL101      0.1146
    405 N           2.6069    2.4254    4.1706 N.3   102  UNL102     -0.3437
    406 H           2.1652    1.5536    3.8821 H     102  UNL102      0.1146
    407 H           3.3325    2.1655    4.8372 H     102  UNL102      0.1146
    408 H           3.0944    2.7788    3.3485 H     102  UNL102      0.1146
    409 N           2.6069    2.4254    6.6353 N.3   103  UNL103     -0.3437
    410 H           2.1652    1.5536    6.3468 H     103  UNL103      0.1146
    411 H           3.3325    2.1655    7.3019 H     103  UNL103      0.1146
    412 H           3.0944    2.7788    5.8132 H     103  UNL103      0.1146
    413 N           2.5853    0.0306    9.0251 N.3   104  UNL104     -0.3437
    414 H           2.6438    0.6889    9.8007 H     104  UNL104      0.1146
    415 H           2.4605    0.5953    8.1861 H     104  UNL104      0.1146
    416 H           3.5094   -0.3913    8.9446 H     104  UNL104      0.1146
    417 N           2.6069    2.4254   11.5649 N.3   105  UNL105     -0.3437
    418 H           2.1652    1.5536   11.2764 H     105  UNL105      0.1146
    419 H           3.3325    2.1655   12.2315 H     105  UNL105      0.1146
    420 H           3.0944    2.7788   10.7428 H     105  UNL105      0.1146
    421 N           2.6069    2.4254   14.0296 N.3   106  UNL106     -0.3437
    422 H           2.1652    1.5536   13.7411 H     106  UNL106      0.1146
    423 H           3.3325    2.1655   14.6962 H     106  UNL106      0.1146
    424 H           3.0944    2.7788   13.2075 H     106  UNL106      0.1146
    425 N           2.6069    0.4254   16.4944 N.3   107  UNL107     -0.3437
    426 H           2.1652   -0.4464   16.2059 H     107  UNL107      0.1146
    427 H           3.3325    0.1655   17.1610 H     107  UNL107      0.1146
    428 H           3.0944    0.7788   15.6723 H     107  UNL107      0.1146
    429 N           2.8135    2.4188   18.6204 N.3   108  UNL108     -0.3437
    430 H           2.1920    2.7416   19.3606 H     108  UNL108      0.1146
    431 H           3.7196    2.2664   19.0610 H     108  UNL108      0.1146
    432 H           2.4738    1.4967   18.3507 H     108  UNL108      0.1146
    433 N           2.8135    2.4188   21.0852 N.3   109  UNL109     -0.3437
    434 H           2.1920    2.7416   21.8254 H     109  UNL109      0.1146
    435 H           3.7196    2.2664   21.5257 H     109  UNL109      0.1146
    436 H           2.4738    1.4967   20.8155 H     109  UNL109      0.1146
    437 N           2.6069    2.4254   23.8887 N.3   110  UNL110     -0.3437
    438 H           2.1652    1.5536   23.6002 H     110  UNL110      0.1146
    439 H           3.3325    2.1655   24.5553 H     110  UNL110      0.1146
    440 H           3.0944    2.7788   23.0666 H     110  UNL110      0.1146
    441 N           2.6069    2.4254   26.3535 N.3   111  UNL111     -0.3437
    442 H           2.1652    1.5536   26.0650 H     111  UNL111      0.1146
    443 H           3.3325    2.1655   27.0201 H     111  UNL111      0.1146
    444 H           3.0944    2.7788   25.5314 H     111  UNL111      0.1146
    445 N           2.5704    2.1105   28.5648 N.3   112  UNL112     -0.3437
    446 H           2.6982    1.7273   29.5003 H     112  UNL112      0.1146
    447 H           2.4753    3.1180   28.6845 H     112  UNL112      0.1146
    448 H           3.4550    1.9677   28.0795 H     112  UNL112      0.1146
    449 N           2.8135    2.4188   30.9443 N.3   113  UNL113     -0.3437
    450 H           2.1920    2.7416   31.6845 H     113  UNL113      0.1146
    451 H           3.7196    2.2664   31.3848 H     113  UNL113      0.1146
    452 H           2.4738    1.4967   30.6746 H     113  UNL113      0.1146
    453 N           2.6069    2.4254   33.7478 N.3   114  UNL114     -0.3437
    454 H           2.1652    1.5536   33.4593 H     114  UNL114      0.1146
    455 H           3.3325    2.1655   34.4144 H     114  UNL114      0.1146
    456 H           3.0944    2.7788   32.9257 H     114  UNL114      0.1146
    457 N           2.5109    0.2106   37.0420 N.3   115  UNL115     -0.3437
    458 H           2.7771    1.1290   37.3942 H     115  UNL115      0.1146
    459 H           3.0950    0.0435   36.2238 H     115  UNL115      0.1146
    460 H           2.8159   -0.4596   37.7463 H     115  UNL115      0.1146
    461 N           2.6069    5.0572    1.7058 N.3   116  UNL116     -0.3437
    462 H           2.1652    4.1854    1.4173 H     116  UNL116      0.1146
    463 H           3.3325    4.7973    2.3724 H     116  UNL116      0.1146
    464 H           3.0944    5.4106    0.8837 H     116  UNL116      0.1146
    465 N           2.6069    5.0572    4.1706 N.3   117  UNL117     -0.3437
    466 H           2.1652    4.1854    3.8821 H     117  UNL117      0.1146
    467 H           3.3325    4.7973    4.8372 H     117  UNL117      0.1146
    468 H           3.0944    5.4106    3.3485 H     117  UNL117      0.1146
    469 N           2.6069    5.0572    6.6353 N.3   118  UNL118     -0.3437
    470 H           2.1652    4.1854    6.3468 H     118  UNL118      0.1146
    471 H           3.3325    4.7973    7.3019 H     118  UNL118      0.1146
    472 H           3.0944    5.4106    5.8132 H     118  UNL118      0.1146
    473 N           2.6069    5.0572    9.1001 N.3   119  UNL119     -0.3437
    474 H           2.1652    4.1854    8.8116 H     119  UNL119      0.1146
    475 H           3.3325    4.7973    9.7667 H     119  UNL119      0.1146
    476 H           3.0944    5.4106    8.2780 H     119  UNL119      0.1146
    477 N           2.6069    5.0572   11.5649 N.3   120  UNL120     -0.3437
    478 H           2.1652    4.1854   11.2764 H     120  UNL120      0.1146
    479 H           3.3325    4.7973   12.2315 H     120  UNL120      0.1146
    480 H           3.0944    5.4106   10.7428 H     120  UNL120      0.1146
    481 N           2.6069    5.0572   14.0296 N.3   121  UNL121     -0.3437
    482 H           2.1652    4.1854   13.7411 H     121  UNL121      0.1146
    483 H           3.3325    4.7973   14.6962 H     121  UNL121      0.1146
    484 H           3.0944    5.4106   13.2075 H     121  UNL121      0.1146
    485 N           2.6069    2.8351   16.1611 N.3   122  UNL122     -0.3437
    486 H           2.1652    3.1257   17.0322 H     122  UNL122      0.1146
    487 H           3.3325    3.5247   15.9704 H     122  UNL122      0.1146
    488 H           3.0944    1.9650   16.3700 H     122  UNL122      0.1146
    489 N           0.6069    4.8351   18.6259 N.3   123  UNL123     -0.3437
    490 H           0.1652    5.1257   19.4970 H     123  UNL123      0.1146
    491 H           1.3325    5.5247   18.4352 H     123  UNL123      0.1146
    492 H           1.0944    3.9650   18.8348 H     123  UNL123      0.1146
    493 N           2.5853    4.6624   19.3489 N.3   124  UNL124     -0.3437
    494 H           2.6438    5.3207   20.1245 H     124  UNL124      0.1146
    495 H           2.4605    5.2271   18.5100 H     124  UNL124      0.1146
    496 H           3.5094    4.2404   19.2684 H     124  UNL124      0.1146
    497 N           2.6069    5.0572   21.8887 N.3   125  UNL125     -0.3437
    498 H           2.1652    4.1854   21.6002 H     125  UNL125      0.1146
    499 H           3.3325    4.7973   22.5553 H     125  UNL125      0.1146
    500 H           3.0944    5.4106   21.0666 H     125  UNL125      0.1146
    501 N           2.6069    5.0572   24.3535 N.3   126  UNL126     -0.3437
    502 H           2.1652    4.1854   24.0650 H     126  UNL126      0.1146
    503 H           3.3325    4.7973   25.0201 H     126  UNL126      0.1146
    504 H           3.0944    5.4106   23.5314 H     126  UNL126      0.1146
    505 N           2.7370    4.8351   28.9948 N.3   127  UNL127     -0.3437
    506 H           3.6993    5.1257   28.8274 H     127  UNL127      0.1146
    507 H           2.1500    5.5247   28.5276 H     127  UNL127      0.1146
    508 H           2.6126    3.9650   28.4792 H     127  UNL127      0.1146
    509 N           0.8325    4.9360   30.8876 N.3   128  UNL128     -0.3437
    510 H          -0.0774    4.5221   31.0856 H     128  UNL128      0.1146
    511 H           0.9196    5.7355   31.5134 H     128  UNL128      0.1146
    512 H           1.5243    4.2570   31.2016 H     128  UNL128      0.1146
    513 N           2.6069    4.7010   33.7919 N.3   129  UNL129     -0.3437
    514 H           2.1652    5.2250   33.0378 H     129  UNL129      0.1146
    515 H           3.3325    4.1355   33.3536 H     129  UNL129      0.1146
    516 H           3.0944    5.3891   34.3640 H     129  UNL129      0.1146
    517 N           2.5231    4.8521   36.9980 N.3   130  UNL130     -0.3437
    518 H           2.6608    4.2586   37.8147 H     130  UNL130      0.1146
    519 H           2.8022    5.7901   37.2821 H     130  UNL130      0.1146
    520 H           3.2128    4.5498   36.3115 H     130  UNL130      0.1146
    521 N           0.5515    7.6531    1.6186 N.3   131  UNL131     -0.3437
    522 H           0.9676    7.4345    2.5227 H     131  UNL131      0.1146
    523 H           1.2754    8.1317    1.0846 H     131  UNL131      0.1146
    524 H           0.4045    6.7585    1.1533 H     131  UNL131      0.1146
    525 N           2.8135    7.6823    3.8318 N.3   132  UNL132     -0.3437
    526 H           2.1920    8.0052    4.5720 H     132  UNL132      0.1146
    527 H           3.7196    7.5300    4.2724 H     132  UNL132      0.1146
    528 H           2.4738    6.7602    3.5621 H     132  UNL132      0.1146
    529 N           2.5704    7.3741    6.3818 N.3   133  UNL133     -0.3437
    530 H           2.6982    6.9909    7.3174 H     133  UNL133      0.1146
    531 H           2.4753    8.3816    6.5016 H     133  UNL133      0.1146
    532 H           3.4550    7.2312    5.8966 H     133  UNL133      0.1146
    533 N           2.6069    7.6890    9.1001 N.3   134  UNL134     -0.3437
    534 H           2.1652    6.8172    8.8116 H     134  UNL134      0.1146
    535 H           3.3325    7.4291    9.7667 H     134  UNL134      0.1146
    536 H           3.0944    8.0424    8.2780 H     134  UNL134      0.1146
    537 N           2.6069    7.6890   11.5649 N.3   135  UNL135     -0.3437
    538 H           2.1652    6.8172   11.2764 H     135  UNL135      0.1146
    539 H           3.3325    7.4291   12.2315 H     135  UNL135      0.1146
    540 H           3.0944    8.0424   10.7428 H     135  UNL135      0.1146
    541 N           2.8325    7.5678   13.6342 N.3   136  UNL136     -0.3437
    542 H           1.9226    7.1539   13.8322 H     136  UNL136      0.1146
    543 H           2.9196    8.3673   14.2600 H     136  UNL136      0.1146
    544 H           3.5243    6.8888   13.9482 H     136  UNL136      0.1146
    545 N           2.6069    7.4669   16.1611 N.3   137  UNL137     -0.3437
    546 H           2.1652    7.7575   17.0322 H     137  UNL137      0.1146
    547 H           3.3325    8.1565   15.9704 H     137  UNL137      0.1146
    548 H           3.0944    6.5968   16.3700 H     137  UNL137      0.1146
    549 N           2.8135    7.6823   18.6204 N.3   138  UNL138     -0.3437
    550 H           2.1920    8.0052   19.3606 H     138  UNL138      0.1146
    551 H           3.7196    7.5300   19.0610 H     138  UNL138      0.1146
    552 H           2.4738    6.7602   18.3507 H     138  UNL138      0.1146
    553 N           2.5704    7.3741   21.1705 N.3   139  UNL139     -0.3437
    554 H           2.6982    6.9909   22.1060 H     139  UNL139      0.1146
    555 H           2.4753    8.3816   21.2902 H     139  UNL139      0.1146
    556 H           3.4550    7.2312   20.6852 H     139  UNL139      0.1146
    557 N           2.6069    7.3328   23.9328 N.3   140  UNL140     -0.3437
    558 H           2.1652    7.8568   23.1787 H     140  UNL140      0.1146
    559 H           3.3325    6.7673   23.4945 H     140  UNL140      0.1146
    560 H           3.0944    8.0209   24.5049 H     140  UNL140      0.1146
    561 N           0.6069    7.6890   26.3535 N.3   141  UNL141     -0.3437
    562 H           0.1652    6.8172   26.0650 H     141  UNL141      0.1146
    563 H           1.3325    7.4291   27.0201 H     141  UNL141      0.1146
    564 H           1.0944    8.0424   25.5314 H     141  UNL141      0.1146
    565 N           2.6069    7.4669   28.4849 N.3   142  UNL142     -0.3437
    566 H           2.1652    7.7575   29.3560 H     142  UNL142      0.1146
    567 H           3.3325    8.1565   28.2942 H     142  UNL142      0.1146
    568 H           3.0944    6.5968   28.6938 H     142  UNL142      0.1146
    569 N           2.6069    7.3328   31.3271 N.3   143  UNL143     -0.3437
    570 H           2.1652    7.8568   30.5730 H     143  UNL143      0.1146
    571 H           3.3325    6.7673   30.8888 H     143  UNL143      0.1146
    572 H           3.0944    8.0209   31.8992 H     143  UNL143      0.1146
    573 N           2.6069    7.6890   33.7478 N.3   144  UNL144     -0.3437
    574 H           2.1652    6.8172   33.4593 H     144  UNL144      0.1146
    575 H           3.3325    7.4291   34.4144 H     144  UNL144      0.1146
    576 H           3.0944    8.0424   32.9257 H     144  UNL144      0.1146
    577 N           2.5231    7.4839   36.9980 N.3   145  UNL145     -0.3437
    578 H           2.6608    6.8904   37.8147 H     145  UNL145      0.1146
    579 H           2.8022    8.4219   37.2821 H     145  UNL145      0.1146
    580 H           3.2128    7.1816   36.3115 H     145  UNL145      0.1146
    581 N           2.6069   10.0987   -1.0923 N.3   146  UNL146     -0.3437
    582 H           2.1652   10.3893   -0.2212 H     146  UNL146      0.1146
    583 H           3.3325   10.7883   -1.2830 H     146  UNL146      0.1146
    584 H           3.0944    9.2286   -0.8834 H     146  UNL146      0.1146
    585 N           2.6069   10.0987    1.3725 N.3   147  UNL147     -0.3437
    586 H           2.1652   10.3893    2.2436 H     147  UNL147      0.1146
    587 H           3.3325   10.7883    1.1818 H     147  UNL147      0.1146
    588 H           3.0944    9.2286    1.5814 H     147  UNL147      0.1146
    589 N           2.6069   10.0987    3.8372 N.3   148  UNL148     -0.3437
    590 H           2.1652   10.3893    4.7083 H     148  UNL148      0.1146
    591 H           3.3325   10.7883    3.6465 H     148  UNL148      0.1146
    592 H           3.0944    9.2286    4.0461 H     148  UNL148      0.1146
    593 N           2.6069   10.0987    6.3020 N.3   149  UNL149     -0.3437
    594 H           2.1652   10.3893    7.1731 H     149  UNL149      0.1146
    595 H           3.3325   10.7883    6.1113 H     149  UNL149      0.1146
    596 H           3.0944    9.2286    6.5109 H     149  UNL149      0.1146
    597 N           2.6069   10.0987    8.7668 N.3   150  UNL150     -0.3437
    598 H           2.1652   10.3893    9.6379 H     150  UNL150      0.1146
    599 H           3.3325   10.7883    8.5761 H     150  UNL150      0.1146
    600 H           3.0944    9.2286    8.9757 H     150  UNL150      0.1146
    601 N           2.6069   10.0987   11.2316 N.3   151  UNL151     -0.3437
    602 H           2.1652   10.3893   12.1027 H     151  UNL151      0.1146
    603 H           3.3325   10.7883   11.0409 H     151  UNL151      0.1146
    604 H           3.0944    9.2286   11.4405 H     151  UNL151      0.1146
    605 N           2.6069   10.0987   13.6963 N.3   152  UNL152     -0.3437
    606 H           2.1652   10.3893   14.5674 H     152  UNL152      0.1146
    607 H           3.3325   10.7883   13.5056 H     152  UNL152      0.1146
    608 H           3.0944    9.2286   13.9052 H     152  UNL152      0.1146
    609 N           2.8441    9.9076   16.1895 N.3   153  UNL153     -0.3437
    610 H           1.8996    9.9095   16.5720 H     153  UNL153      0.1146
    611 H           2.9837   10.8307   15.7813 H     153  UNL153      0.1146
    612 H           3.4715    9.8571   16.9908 H     153  UNL153      0.1146
    613 N           2.6069   10.0987   18.6259 N.3   154  UNL154     -0.3437
    614 H           2.1652   10.3893   19.4970 H     154  UNL154      0.1146
    615 H           3.3325   10.7883   18.4352 H     154  UNL154      0.1146
    616 H           3.0944    9.2286   18.8348 H     154  UNL154      0.1146
    617 N           2.6069   10.3208   21.4240 N.3   155  UNL155     -0.3437
    618 H           2.1652    9.4490   21.1355 H     155  UNL155      0.1146
    619 H           3.3325   10.0609   22.0906 H     155  UNL155      0.1146
    620 H           3.0944   10.6742   20.6019 H     155  UNL155      0.1146
    621 N           2.6069   10.0987   23.5554 N.3   156  UNL156     -0.3437
    622 H           2.1652   10.3893   24.4265 H     156  UNL156      0.1146
    623 H           3.3325   10.7883   23.3647 H     156  UNL156      0.1146
    624 H           3.0944    9.2286   23.7643 H     156  UNL156      0.1146
    625 N           2.6069    8.0987   26.0202 N.3   157  UNL157     -0.3437
    626 H           2.1652    8.3893   26.8913 H     157  UNL157      0.1146
    627 H           3.3325    8.7883   25.8295 H     157  UNL157      0.1146
    628 H           3.0944    7.2286   26.2291 H     157  UNL157      0.1146
    629 N           2.6069    9.9646   28.8624 N.3   158  UNL158     -0.3437
    630 H           2.1652   10.4886   28.1082 H     158  UNL158      0.1146
    631 H           3.3325    9.3991   28.4240 H     158  UNL158      0.1146
    632 H           3.0944   10.6527   29.4344 H     158  UNL158      0.1146
    633 N           2.6069   10.0987   30.9497 N.3   159  UNL159     -0.3437
    634 H           2.1652   10.3893   31.8208 H     159  UNL159      0.1146
    635 H           3.3325   10.7883   30.7590 H     159  UNL159      0.1146
    636 H           3.0944    9.2286   31.1586 H     159  UNL159      0.1146
    637 N           2.6069   10.0987   33.4145 N.3   160  UNL160     -0.3437
    638 H           2.1652   10.3893   34.2856 H     160  UNL160      0.1146
    639 H           3.3325   10.7883   33.2238 H     160  UNL160      0.1146
    640 H           3.0944    9.2286   33.6234 H     160  UNL160      0.1146
    641 N           2.5231   10.1157   36.9980 N.3   161  UNL161     -0.3437
    642 H           2.6608    9.5222   37.8147 H     161  UNL161      0.1146
    643 H           2.8022   11.0537   37.2821 H     161  UNL161      0.1146
    644 H           3.2128    9.8134   36.3115 H     161  UNL161      0.1146
    645 N           2.6069   12.9526    1.7058 N.3   162  UNL162     -0.3437
    646 H           2.1652   12.0808    1.4173 H     162  UNL162      0.1146
    647 H           3.3325   12.6927    2.3724 H     162  UNL162      0.1146
    648 H           3.0944   13.3060    0.8837 H     162  UNL162      0.1146
    649 N           2.6069   12.9526    4.1706 N.3   163  UNL163     -0.3437
    650 H           2.1652   12.0808    3.8821 H     163  UNL163      0.1146
    651 H           3.3325   12.6927    4.8372 H     163  UNL163      0.1146
    652 H           3.0944   13.3060    3.3485 H     163  UNL163      0.1146
    653 N           2.6069   12.9526    6.6353 N.3   164  UNL164     -0.3437
    654 H           2.1652   12.0808    6.3468 H     164  UNL164      0.1146
    655 H           3.3325   12.6927    7.3019 H     164  UNL164      0.1146
    656 H           3.0944   13.3060    5.8132 H     164  UNL164      0.1146
    657 N           2.6069   12.9526    9.1001 N.3   165  UNL165     -0.3437
    658 H           2.1652   12.0808    8.8116 H     165  UNL165      0.1146
    659 H           3.3325   12.6927    9.7667 H     165  UNL165      0.1146
    660 H           3.0944   13.3060    8.2780 H     165  UNL165      0.1146
    661 N           2.6069   12.9526   11.5649 N.3   166  UNL166     -0.3437
    662 H           2.1652   12.0808   11.2764 H     166  UNL166      0.1146
    663 H           3.3325   12.6927   12.2315 H     166  UNL166      0.1146
    664 H           3.0944   13.3060   10.7428 H     166  UNL166      0.1146
    665 N           2.6069   12.9526   14.0296 N.3   167  UNL167     -0.3437
    666 H           2.1652   12.0808   13.7411 H     167  UNL167      0.1146
    667 H           3.3325   12.6927   14.6962 H     167  UNL167      0.1146
    668 H           3.0944   13.3060   13.2075 H     167  UNL167      0.1146
    669 N           2.6069   12.7305   16.1611 N.3   168  UNL168     -0.3437
    670 H           2.1652   13.0211   17.0322 H     168  UNL168      0.1146
    671 H           3.3325   13.4201   15.9704 H     168  UNL168      0.1146
    672 H           3.0944   11.8604   16.3700 H     168  UNL168      0.1146
    673 N           2.6069   12.5964   19.0033 N.3   169  UNL169     -0.3437
    674 H           2.1652   13.1203   18.2492 H     169  UNL169      0.1146
    675 H           3.3325   12.0309   18.5649 H     169  UNL169      0.1146
    676 H           3.0944   13.2845   19.5754 H     169  UNL169      0.1146
    677 N           2.6069   12.7305   21.0906 N.3   170  UNL170     -0.3437
    678 H           2.1652   13.0211   21.9617 H     170  UNL170      0.1146
    679 H           3.3325   13.4201   20.8999 H     170  UNL170      0.1146
    680 H           3.0944   11.8604   21.2995 H     170  UNL170      0.1146
    681 N           2.6069   12.9526   23.8887 N.3   171  UNL171     -0.3437
    682 H           2.1652   12.0808   23.6002 H     171  UNL171      0.1146
    683 H           3.3325   12.6927   24.5553 H     171  UNL171      0.1146
    684 H           3.0944   13.3060   23.0666 H     171  UNL171      0.1146
    685 N           2.6069   12.9526   26.3535 N.3   172  UNL172     -0.3437
    686 H           2.1652   12.0808   26.0650 H     172  UNL172      0.1146
    687 H           3.3325   12.6927   27.0201 H     172  UNL172      0.1146
    688 H           3.0944   13.3060   25.5314 H     172  UNL172      0.1146
    689 N           2.6069   12.9526   28.8183 N.3   173  UNL173     -0.3437
    690 H           2.1652   12.0808   28.5298 H     173  UNL173      0.1146
    691 H           3.3325   12.6927   29.4849 H     173  UNL173      0.1146
    692 H           3.0944   13.3060   27.9962 H     173  UNL173      0.1146
    693 N           2.6069   12.9526   31.2830 N.3   174  UNL174     -0.3437
    694 H           2.1652   12.0808   30.9945 H     174  UNL174      0.1146
    695 H           3.3325   12.6927   31.9496 H     174  UNL174      0.1146
    696 H           3.0944   13.3060   30.4609 H     174  UNL174      0.1146
    697 N           2.6069   12.9526   33.7478 N.3   175  UNL175     -0.3437
    698 H           2.1652   12.0808   33.4593 H     175  UNL175      0.1146
    699 H           3.3325   12.6927   34.4144 H     175  UNL175      0.1146
    700 H           3.0944   13.3060   32.9257 H     175  UNL175      0.1146
    701 N           2.5231   12.7475   36.9980 N.3   176  UNL176     -0.3437
    702 H           2.6608   12.1539   37.8147 H     176  UNL176      0.1146
    703 H           2.8022   13.6855   37.2821 H     176  UNL176      0.1146
    704 H           3.2128   12.4452   36.3115 H     176  UNL176      0.1146
    705 N           2.6069   15.3623    1.3725 N.3   177  UNL177     -0.3437
    706 H           2.1652   15.6529    2.2436 H     177  UNL177      0.1146
    707 H           3.3325   16.0519    1.1818 H     177  UNL177      0.1146
    708 H           3.0944   14.4922    1.5814 H     177  UNL177      0.1146
    709 N           2.8615   16.5746    8.7668 N.3   178  UNL178     -0.3437
    710 H           3.3192   16.8392    9.6379 H     178  UNL178      0.1146
    711 H           3.1529   15.6169    8.5761 H     178  UNL178      0.1146
    712 H           1.8652   16.5286    8.9757 H     178  UNL178      0.1146
    713 N           2.6069   15.3623   11.2316 N.3   179  UNL179     -0.3437
    714 H           2.1652   15.6529   12.1027 H     179  UNL179      0.1146
    715 H           3.3325   16.0519   11.0409 H     179  UNL179      0.1146
    716 H           3.0944   14.4922   11.4405 H     179  UNL179      0.1146
    717 N           2.6069   15.3623   13.6963 N.3   180  UNL180     -0.3437
    718 H           2.1652   15.6529   14.5674 H     180  UNL180      0.1146
    719 H           3.3325   16.0519   13.5056 H     180  UNL180      0.1146
    720 H           3.0944   14.4922   13.9052 H     180  UNL180      0.1146
    721 N           2.6069   15.3623   18.6259 N.3   181  UNL181     -0.3437
    722 H           2.1652   15.6529   19.4970 H     181  UNL181      0.1146
    723 H           3.3325   16.0519   18.4352 H     181  UNL181      0.1146
    724 H           3.0944   14.4922   18.8348 H     181  UNL181      0.1146
    725 N           2.6069   15.3623   30.9497 N.3   182  UNL182     -0.3437
    726 H           2.1652   15.6529   31.8208 H     182  UNL182      0.1146
    727 H           3.3325   16.0519   30.7590 H     182  UNL182      0.1146
    728 H           3.0944   14.4922   31.1586 H     182  UNL182      0.1146
    729 N           2.6069   15.3623   35.8793 N.3   183  UNL183     -0.3437
    730 H           2.1652   15.6529   36.7504 H     183  UNL183      0.1146
    731 H           3.3325   16.0519   35.6886 H     183  UNL183      0.1146
    732 H           3.0944   14.4922   36.0882 H     183  UNL183      0.1146
    733 N           4.9698   -0.2063    1.7058 N.3   184  UNL184     -0.3437
    734 H           4.5281   -1.0781    1.4173 H     184  UNL184      0.1146
    735 H           5.6954   -0.4663    2.3724 H     184  UNL184      0.1146
    736 H           5.4573    0.1470    0.8837 H     184  UNL184      0.1146
    737 N           4.9698   -0.2063    4.1706 N.3   185  UNL185     -0.3437
    738 H           4.5281   -1.0781    3.8821 H     185  UNL185      0.1146
    739 H           5.6954   -0.4663    4.8372 H     185  UNL185      0.1146
    740 H           5.4573    0.1470    3.3485 H     185  UNL185      0.1146
    741 N           4.9698   -0.2063    6.6353 N.3   186  UNL186     -0.3437
    742 H           4.5281   -1.0781    6.3468 H     186  UNL186      0.1146
    743 H           5.6954   -0.4663    7.3019 H     186  UNL186      0.1146
    744 H           5.4573    0.1470    5.8132 H     186  UNL186      0.1146
    745 N           4.9698   -0.2063    9.1001 N.3   187  UNL187     -0.3437
    746 H           4.5281   -1.0781    8.8116 H     187  UNL187      0.1146
    747 H           5.6954   -0.4663    9.7667 H     187  UNL187      0.1146
    748 H           5.4573    0.1470    8.2780 H     187  UNL187      0.1146
    749 N           4.9698   -0.4285   11.2316 N.3   188  UNL188     -0.3437
    750 H           4.5281   -0.1379   12.1027 H     188  UNL188      0.1146
    751 H           5.6954    0.2611   11.0409 H     188  UNL188      0.1146
    752 H           5.4573   -1.2986   11.4405 H     188  UNL188      0.1146
    753 N           4.9698   -0.5626   14.0737 N.3   189  UNL189     -0.3437
    754 H           4.5281   -0.0386   13.3196 H     189  UNL189      0.1146
    755 H           5.6954   -1.1281   13.6354 H     189  UNL189      0.1146
    756 H           5.4573    0.1255   14.6458 H     189  UNL189      0.1146
    757 N           4.9698   -0.2063   16.4944 N.3   190  UNL190     -0.3437
    758 H           4.5281   -1.0781   16.2059 H     190  UNL190      0.1146
    759 H           5.6954   -0.4663   17.1610 H     190  UNL190      0.1146
    760 H           5.4573    0.1470   15.6723 H     190  UNL190      0.1146
    761 N           4.9698   -0.2063   18.9592 N.3   191  UNL191     -0.3437
    762 H           4.5281   -1.0781   18.6707 H     191  UNL191      0.1146
    763 H           5.6954   -0.4663   19.6258 H     191  UNL191      0.1146
    764 H           5.4573    0.1470   18.1371 H     191  UNL191      0.1146
    765 N           4.9698   -0.4285   21.0906 N.3   192  UNL192     -0.3437
    766 H           4.5281   -0.1379   21.9617 H     192  UNL192      0.1146
    767 H           5.6954    0.2611   20.8999 H     192  UNL192      0.1146
    768 H           5.4573   -1.2986   21.2995 H     192  UNL192      0.1146
    769 N           4.9698   -0.5626   26.3976 N.3   193  UNL193     -0.3437
    770 H           4.5281   -0.0386   25.6435 H     193  UNL193      0.1146
    771 H           5.6954   -1.1281   25.9593 H     193  UNL193      0.1146
    772 H           5.4573    0.1255   26.9697 H     193  UNL193      0.1146
    773 N           4.9333   -0.5213   28.5648 N.3   194  UNL194     -0.3437
    774 H           5.0611   -0.9045   29.5003 H     194  UNL194      0.1146
    775 H           4.8382    0.4862   28.6845 H     194  UNL194      0.1146
    776 H           5.8179   -0.6641   28.0795 H     194  UNL194      0.1146
    777 N           5.1764   -0.2130   30.9443 N.3   195  UNL195     -0.3437
    778 H           4.5549    0.1098   31.6845 H     195  UNL195      0.1146
    779 H           6.0826   -0.3654   31.3848 H     195  UNL195      0.1146
    780 H           4.8367   -1.1351   30.6746 H     195  UNL195      0.1146
    781 N           4.9698   -0.2063   33.7478 N.3   196  UNL196     -0.3437
    782 H           4.5281   -1.0781   33.4593 H     196  UNL196      0.1146
    783 H           5.6954   -0.4663   34.4144 H     196  UNL196      0.1146
    784 H           5.4573    0.1470   32.9257 H     196  UNL196      0.1146
    785 N           4.9698    2.4254    1.7058 N.3   197  UNL197     -0.3437
    786 H           4.5281    1.5536    1.4173 H     197  UNL197      0.1146
    787 H           5.6954    2.1655    2.3724 H     197  UNL197      0.1146
    788 H           5.4573    2.7788    0.8837 H     197  UNL197      0.1146
    789 N           4.9698    2.4254    4.1706 N.3   198  UNL198     -0.3437
    790 H           4.5281    1.5536    3.8821 H     198  UNL198      0.1146
    791 H           5.6954    2.1655    4.8372 H     198  UNL198      0.1146
    792 H           5.4573    2.7788    3.3485 H     198  UNL198      0.1146
    793 N           4.9698    2.4254    6.6353 N.3   199  UNL199     -0.3437
    794 H           4.5281    1.5536    6.3468 H     199  UNL199      0.1146
    795 H           5.6954    2.1655    7.3019 H     199  UNL199      0.1146
    796 H           5.4573    2.7788    5.8132 H     199  UNL199      0.1146
    797 N           4.9698    2.4254    9.1001 N.3   200  UNL200     -0.3437
    798 H           4.5281    1.5536    8.8116 H     200  UNL200      0.1146
    799 H           5.6954    2.1655    9.7667 H     200  UNL200      0.1146
    800 H           5.4573    2.7788    8.2780 H     200  UNL200      0.1146
    801 N           4.9698    2.4254   11.5649 N.3   201  UNL201     -0.3437
    802 H           4.5281    1.5536   11.2764 H     201  UNL201      0.1146
    803 H           5.6954    2.1655   12.2315 H     201  UNL201      0.1146
    804 H           5.4573    2.7788   10.7428 H     201  UNL201      0.1146
    805 N           4.9698    2.4254   14.0296 N.3   202  UNL202     -0.3437
    806 H           4.5281    1.5536   13.7411 H     202  UNL202      0.1146
    807 H           5.6954    2.1655   14.6962 H     202  UNL202      0.1146
    808 H           5.4573    2.7788   13.2075 H     202  UNL202      0.1146
    809 N           4.9698    2.4254   16.4944 N.3   203  UNL203     -0.3437
    810 H           4.5281    1.5536   16.2059 H     203  UNL203      0.1146
    811 H           5.6954    2.1655   17.1610 H     203  UNL203      0.1146
    812 H           5.4573    2.7788   15.6723 H     203  UNL203      0.1146
    813 N           4.9698    2.2033   18.6259 N.3   204  UNL204     -0.3437
    814 H           4.5281    2.4939   19.4970 H     204  UNL204      0.1146
    815 H           5.6954    2.8929   18.4352 H     204  UNL204      0.1146
    816 H           5.4573    1.3332   18.8348 H     204  UNL204      0.1146
    817 N           4.9698    2.0692   21.4681 N.3   205  UNL205     -0.3437
    818 H           4.5281    2.5932   20.7139 H     205  UNL205      0.1146
    819 H           5.6954    1.5037   21.0297 H     205  UNL205      0.1146
    820 H           5.4573    2.7573   22.0401 H     205  UNL205      0.1146
    821 N           4.9698    2.4254   23.8887 N.3   206  UNL206     -0.3437
    822 H           4.5281    1.5536   23.6002 H     206  UNL206      0.1146
    823 H           5.6954    2.1655   24.5553 H     206  UNL206      0.1146
    824 H           5.4573    2.7788   23.0666 H     206  UNL206      0.1146
    825 N           4.9698    2.4254   26.3535 N.3   207  UNL207     -0.3437
    826 H           4.5281    1.5536   26.0650 H     207  UNL207      0.1146
    827 H           5.6954    2.1655   27.0201 H     207  UNL207      0.1146
    828 H           5.4573    2.7788   25.5314 H     207  UNL207      0.1146
    829 N           4.9698    2.2033   28.4849 N.3   208  UNL208     -0.3437
    830 H           4.5281    2.4939   29.3560 H     208  UNL208      0.1146
    831 H           5.6954    2.8929   28.2942 H     208  UNL208      0.1146
    832 H           5.4573    1.3332   28.6938 H     208  UNL208      0.1146
    833 N           4.9698    2.0692   31.3271 N.3   209  UNL209     -0.3437
    834 H           4.5281    2.5932   30.5730 H     209  UNL209      0.1146
    835 H           5.6954    1.5037   30.8888 H     209  UNL209      0.1146
    836 H           5.4573    2.7573   31.8992 H     209  UNL209      0.1146
    837 N           4.9698    2.4254   33.7478 N.3   210  UNL210     -0.3437
    838 H           4.5281    1.5536   33.4593 H     210  UNL210      0.1146
    839 H           5.6954    2.1655   34.4144 H     210  UNL210      0.1146
    840 H           5.4573    2.7788   32.9257 H     210  UNL210      0.1146
    841 N           4.8860    2.2203   36.9980 N.3   211  UNL211     -0.3437
    842 H           5.0237    1.6268   37.8147 H     211  UNL211      0.1146
    843 H           5.1651    3.1583   37.2821 H     211  UNL211      0.1146
    844 H           5.5758    1.9180   36.3115 H     211  UNL211      0.1146
    845 N           4.9698    4.8351   -0.6275 N.3   212  UNL212     -0.3437
    846 H           4.5281    5.1257    0.2436 H     212  UNL212      0.1146
    847 H           5.6954    5.5247   -0.8182 H     212  UNL212      0.1146
    848 H           5.4573    3.9650   -0.4186 H     212  UNL212      0.1146
    849 N           4.9698    4.8351    1.8372 N.3   213  UNL213     -0.3437
    850 H           4.5281    5.1257    2.7083 H     213  UNL213      0.1146
    851 H           5.6954    5.5247    1.6465 H     213  UNL213      0.1146
    852 H           5.4573    3.9650    2.0461 H     213  UNL213      0.1146
    853 N           4.9698    4.8351    4.3020 N.3   214  UNL214     -0.3437
    854 H           4.5281    5.1257    5.1731 H     214  UNL214      0.1146
    855 H           5.6954    5.5247    4.1113 H     214  UNL214      0.1146
    856 H           5.4573    3.9650    4.5109 H     214  UNL214      0.1146
    857 N           4.9698    4.8351    6.7668 N.3   215  UNL215     -0.3437
    858 H           4.5281    5.1257    7.6379 H     215  UNL215      0.1146
    859 H           5.6954    5.5247    6.5761 H     215  UNL215      0.1146
    860 H           5.4573    3.9650    6.9757 H     215  UNL215      0.1146
    861 N           4.9698    4.8351    9.2316 N.3   216  UNL216     -0.3437
    862 H           4.5281    5.1257   10.1027 H     216  UNL216      0.1146
    863 H           5.6954    5.5247    9.0409 H     216  UNL216      0.1146
    864 H           5.4573    3.9650    9.4405 H     216  UNL216      0.1146
    865 N           4.9698    4.8351   11.6963 N.3   217  UNL217     -0.3437
    866 H           4.5281    5.1257   12.5674 H     217  UNL217      0.1146
    867 H           5.6954    5.5247   11.5056 H     217  UNL217      0.1146
    868 H           5.4573    3.9650   11.9052 H     217  UNL217      0.1146
    869 N           4.9698    4.8351   14.1611 N.3   218  UNL218     -0.3437
    870 H           4.5281    5.1257   15.0322 H     218  UNL218      0.1146
    871 H           5.6954    5.5247   13.9704 H     218  UNL218      0.1146
    872 H           5.4573    3.9650   14.3700 H     218  UNL218      0.1146
    873 N           4.9144    5.0213   16.8720 N.3   219  UNL219     -0.3437
    874 H           5.3305    4.8027   17.7761 H     219  UNL219      0.1146
    875 H           5.6383    5.4999   16.3379 H     219  UNL219      0.1146
    876 H           4.7674    4.1267   16.4067 H     219  UNL219      0.1146
    877 N           4.9144    5.0213   19.3368 N.3   220  UNL220     -0.3437
    878 H           5.3305    4.8027   20.2409 H     220  UNL220      0.1146
    879 H           5.6383    5.4999   18.8027 H     220  UNL220      0.1146
    880 H           4.7674    4.1267   18.8715 H     220  UNL220      0.1146
    881 N           4.9698    4.8351   21.5554 N.3   221  UNL221     -0.3437
    882 H           4.5281    5.1257   22.4265 H     221  UNL221      0.1146
    883 H           5.6954    5.5247   21.3647 H     221  UNL221      0.1146
    884 H           5.4573    3.9650   21.7643 H     221  UNL221      0.1146
    885 N           4.9144    5.0213   24.2663 N.3   222  UNL222     -0.3437
    886 H           5.3305    4.8027   25.1704 H     222  UNL222      0.1146
    887 H           5.6383    5.4999   23.7323 H     222  UNL222      0.1146
    888 H           4.7674    4.1267   23.8010 H     222  UNL222      0.1146
    889 N           5.1764    5.0505   28.4795 N.3   223  UNL223     -0.3437
    890 H           4.5549    5.3734   29.2197 H     223  UNL223      0.1146
    891 H           6.0826    4.8982   28.9201 H     223  UNL223      0.1146
    892 H           4.8367    4.1285   28.2098 H     223  UNL223      0.1146
    893 N           4.9333    4.7423   31.0295 N.3   224  UNL224     -0.3437
    894 H           5.0611    4.3591   31.9651 H     224  UNL224      0.1146
    895 H           4.8382    5.7498   31.1493 H     224  UNL224      0.1146
    896 H           5.8179    4.5994   30.5443 H     224  UNL224      0.1146
    897 N           4.9698    5.0572   33.7478 N.3   225  UNL225     -0.3437
    898 H           4.5281    4.1854   33.4593 H     225  UNL225      0.1146
    899 H           5.6954    4.7973   34.4144 H     225  UNL225      0.1146
    900 H           5.4573    5.4106   32.9257 H     225  UNL225      0.1146
    901 N           4.8860    4.8521   36.9980 N.3   226  UNL226     -0.3437
    902 H           5.0237    4.2586   37.8147 H     226  UNL226      0.1146
    903 H           5.1651    5.7901   37.2821 H     226  UNL226      0.1146
    904 H           5.5758    4.5498   36.3115 H     226  UNL226      0.1146
    905 N           2.9698    7.3328    1.7499 N.3   227  UNL227     -0.3437
    906 H           2.5281    7.8568    0.9958 H     227  UNL227      0.1146
    907 H           3.6954    6.7673    1.3116 H     227  UNL227      0.1146
    908 H           3.4573    8.0209    2.3220 H     227  UNL227      0.1146
    909 N           4.9698    7.3328    4.2147 N.3   228  UNL228     -0.3437
    910 H           4.5281    7.8568    3.4605 H     228  UNL228      0.1146
    911 H           5.6954    6.7673    3.7763 H     228  UNL228      0.1146
    912 H           5.4573    8.0209    4.7867 H     228  UNL228      0.1146
    913 N           5.3001    7.3564    6.3020 N.3   229  UNL229     -0.3437
    914 H           5.3316    6.8286    7.1731 H     229  UNL229      0.1146
    915 H           4.3134    7.5250    6.1113 H     229  UNL229      0.1146
    916 H           5.7055    8.2677    6.5109 H     229  UNL229      0.1146
    917 N           4.9698    7.6890    9.1001 N.3   230  UNL230     -0.3437
    918 H           4.5281    6.8172    8.8116 H     230  UNL230      0.1146
    919 H           5.6954    7.4291    9.7667 H     230  UNL230      0.1146
    920 H           5.4573    8.0424    8.2780 H     230  UNL230      0.1146
    921 N           4.9698    7.6890   11.5649 N.3   231  UNL231     -0.3437
    922 H           4.5281    6.8172   11.2764 H     231  UNL231      0.1146
    923 H           5.6954    7.4291   12.2315 H     231  UNL231      0.1146
    924 H           5.4573    8.0424   10.7428 H     231  UNL231      0.1146
    925 N           5.3001    7.3564   13.6963 N.3   232  UNL232     -0.3437
    926 H           5.3316    6.8286   14.5674 H     232  UNL232      0.1146
    927 H           4.3134    7.5250   13.5056 H     232  UNL232      0.1146
    928 H           5.7055    8.2677   13.9052 H     232  UNL232      0.1146
    929 N           4.9698    7.4669   16.1611 N.3   233  UNL233     -0.3437
    930 H           4.5281    7.7575   17.0322 H     233  UNL233      0.1146
    931 H           5.6954    8.1565   15.9704 H     233  UNL233      0.1146
    932 H           5.4573    6.5968   16.3700 H     233  UNL233      0.1146
    933 N           4.9698    7.3328   19.0033 N.3   234  UNL234     -0.3437
    934 H           4.5281    7.8568   18.2492 H     234  UNL234      0.1146
    935 H           5.6954    6.7673   18.5649 H     234  UNL234      0.1146
    936 H           5.4573    8.0209   19.5754 H     234  UNL234      0.1146
    937 N           4.9698    7.4669   21.0906 N.3   235  UNL235     -0.3437
    938 H           4.5281    7.7575   21.9617 H     235  UNL235      0.1146
    939 H           5.6954    8.1565   20.8999 H     235  UNL235      0.1146
    940 H           5.4573    6.5968   21.2995 H     235  UNL235      0.1146
    941 N           5.1764    7.6823   23.5499 N.3   236  UNL236     -0.3437
    942 H           4.5549    8.0052   24.2902 H     236  UNL236      0.1146
    943 H           6.0826    7.5300   23.9905 H     236  UNL236      0.1146
    944 H           4.8367    6.7602   23.2803 H     236  UNL236      0.1146
    945 N           5.1764    7.6823   26.0147 N.3   237  UNL237     -0.3437
    946 H           4.5549    8.0052   26.7549 H     237  UNL237      0.1146
    947 H           6.0826    7.5300   26.4553 H     237  UNL237      0.1146
    948 H           4.8367    6.7602   25.7450 H     237  UNL237      0.1146
    949 N           4.9698    7.4669   28.4849 N.3   238  UNL238     -0.3437
    950 H           4.5281    7.7575   29.3560 H     238  UNL238      0.1146
    951 H           5.6954    8.1565   28.2942 H     238  UNL238      0.1146
    952 H           5.4573    6.5968   28.6938 H     238  UNL238      0.1146
    953 N           5.1764    7.6823   30.9443 N.3   239  UNL239     -0.3437
    954 H           4.5549    8.0052   31.6845 H     239  UNL239      0.1146
    955 H           6.0826    7.5300   31.3848 H     239  UNL239      0.1146
    956 H           4.8367    6.7602   30.6746 H     239  UNL239      0.1146
    957 N           4.9333    7.3741   33.4943 N.3   240  UNL240     -0.3437
    958 H           5.0611    6.9909   34.4298 H     240  UNL240      0.1146
    959 H           4.8382    8.3816   33.6140 H     240  UNL240      0.1146
    960 H           5.8179    7.2312   33.0091 H     240  UNL240      0.1146
    961 N           4.8860    7.4839   36.9980 N.3   241  UNL241     -0.3437
    962 H           5.0237    6.8904   37.8147 H     241  UNL241      0.1146
    963 H           5.1651    8.4219   37.2821 H     241  UNL241      0.1146
    964 H           5.5758    7.1816   36.3115 H     241  UNL241      0.1146
    965 N           4.9698   10.0987   -1.0923 N.3   242  UNL242     -0.3437
    966 H           4.5281   10.3893   -0.2212 H     242  UNL242      0.1146
    967 H           5.6954   10.7883   -1.2830 H     242  UNL242      0.1146
    968 H           5.4573    9.2286   -0.8834 H     242  UNL242      0.1146
    969 N           4.9698   10.0987    1.3725 N.3   243  UNL243     -0.3437
    970 H           4.5281   10.3893    2.2436 H     243  UNL243      0.1146
    971 H           5.6954   10.7883    1.1818 H     243  UNL243      0.1146
    972 H           5.4573    9.2286    1.5814 H     243  UNL243      0.1146
    973 N           4.9698   10.0987    3.8372 N.3   244  UNL244     -0.3437
    974 H           4.5281   10.3893    4.7083 H     244  UNL244      0.1146
    975 H           5.6954   10.7883    3.6465 H     244  UNL244      0.1146
    976 H           5.4573    9.2286    4.0461 H     244  UNL244      0.1146
    977 N           4.9698   10.0987    6.3020 N.3   245  UNL245     -0.3437
    978 H           4.5281   10.3893    7.1731 H     245  UNL245      0.1146
    979 H           5.6954   10.7883    6.1113 H     245  UNL245      0.1146
    980 H           5.4573    9.2286    6.5109 H     245  UNL245      0.1146
    981 N           4.9698   10.0987    8.7668 N.3   246  UNL246     -0.3437
    982 H           4.5281   10.3893    9.6379 H     246  UNL246      0.1146
    983 H           5.6954   10.7883    8.5761 H     246  UNL246      0.1146
    984 H           5.4573    9.2286    8.9757 H     246  UNL246      0.1146
    985 N           4.9698   10.0987   11.2316 N.3   247  UNL247     -0.3437
    986 H           4.5281   10.3893   12.1027 H     247  UNL247      0.1146
    987 H           5.6954   10.7883   11.0409 H     247  UNL247      0.1146
    988 H           5.4573    9.2286   11.4405 H     247  UNL247      0.1146
    989 N           4.9698   10.0987   13.6963 N.3   248  UNL248     -0.3437
    990 H           4.5281   10.3893   14.5674 H     248  UNL248      0.1146
    991 H           5.6954   10.7883   13.5056 H     248  UNL248      0.1146
    992 H           5.4573    9.2286   13.9052 H     248  UNL248      0.1146
    993 N           4.9698    9.9646   16.5385 N.3   249  UNL249     -0.3437
    994 H           4.5281   10.4886   15.7844 H     249  UNL249      0.1146
    995 H           5.6954    9.3991   16.1002 H     249  UNL249      0.1146
    996 H           5.4573   10.6527   17.1106 H     249  UNL249      0.1146
    997 N           4.9698   10.0987   18.6259 N.3   250  UNL250     -0.3437
    998 H           4.5281   10.3893   19.4970 H     250  UNL250      0.1146
    999 H           5.6954   10.7883   18.4352 H     250  UNL250      0.1146
   1000 H           5.4573    9.2286   18.8348 H     250  UNL250      0.1146
   1001 N           4.9333   10.0059   21.1705 N.3   251  UNL251     -0.3437
   1002 H           5.0611    9.6227   22.1060 H     251  UNL251      0.1146
   1003 H           4.8382   11.0134   21.2902 H     251  UNL251      0.1146
   1004 H           5.8179    9.8630   20.6852 H     251  UNL251      0.1146
   1005 N           4.9698   10.0987   23.5554 N.3   252  UNL252     -0.3437
   1006 H           4.5281   10.3893   24.4265 H     252  UNL252      0.1146
   1007 H           5.6954   10.7883   23.3647 H     252  UNL252      0.1146
   1008 H           5.4573    9.2286   23.7643 H     252  UNL252      0.1146
   1009 N           4.9698   10.0987   26.0202 N.3   253  UNL253     -0.3437
   1010 H           4.5281   10.3893   26.8913 H     253  UNL253      0.1146
   1011 H           5.6954   10.7883   25.8295 H     253  UNL253      0.1146
   1012 H           5.4573    9.2286   26.2291 H     253  UNL253      0.1146
   1013 N           5.2070    9.9076   28.5134 N.3   254  UNL254     -0.3437
   1014 H           4.2625    9.9095   28.8959 H     254  UNL254      0.1146
   1015 H           5.3466   10.8307   28.1051 H     254  UNL254      0.1146
   1016 H           5.8345    9.8571   29.3147 H     254  UNL254      0.1146
   1017 N           4.9698   10.0987   30.9497 N.3   255  UNL255     -0.3437
   1018 H           4.5281   10.3893   31.8208 H     255  UNL255      0.1146
   1019 H           5.6954   10.7883   30.7590 H     255  UNL255      0.1146
   1020 H           5.4573    9.2286   31.1586 H     255  UNL255      0.1146
   1021 N           4.9698   10.0987   33.4145 N.3   256  UNL256     -0.3437
   1022 H           4.5281   10.3893   34.2856 H     256  UNL256      0.1146
   1023 H           5.6954   10.7883   33.2238 H     256  UNL256      0.1146
   1024 H           5.4573    9.2286   33.6234 H     256  UNL256      0.1146
   1025 N           4.9698   10.3208   36.2126 N.3   257  UNL257     -0.3437
   1026 H           4.5281    9.4490   35.9241 H     257  UNL257      0.1146
   1027 H           5.6954   10.0609   36.8792 H     257  UNL257      0.1146
   1028 H           5.4573   10.6742   35.3905 H     257  UNL257      0.1146
   1029 N           4.9698   12.9526    1.7058 N.3   258  UNL258     -0.3437
   1030 H           4.5281   12.0808    1.4173 H     258  UNL258      0.1146
   1031 H           5.6954   12.6927    2.3724 H     258  UNL258      0.1146
   1032 H           5.4573   13.3060    0.8837 H     258  UNL258      0.1146
   1033 N           4.9698   12.9526    4.1706 N.3   259  UNL259     -0.3437
   1034 H           4.5281   12.0808    3.8821 H     259  UNL259      0.1146
   1035 H           5.6954   12.6927    4.8372 H     259  UNL259      0.1146
   1036 H           5.4573   13.3060    3.3485 H     259  UNL259      0.1146
   1037 N           4.9698   12.9526    6.6353 N.3   260  UNL260     -0.3437
   1038 H           4.5281   12.0808    6.3468 H     260  UNL260      0.1146
   1039 H           5.6954   12.6927    7.3019 H     260  UNL260      0.1146
   1040 H           5.4573   13.3060    5.8132 H     260  UNL260      0.1146
   1041 N           4.9698   12.9526    9.1001 N.3   261  UNL261     -0.3437
   1042 H           4.5281   12.0808    8.8116 H     261  UNL261      0.1146
   1043 H           5.6954   12.6927    9.7667 H     261  UNL261      0.1146
   1044 H           5.4573   13.3060    8.2780 H     261  UNL261      0.1146
   1045 N           4.9698   12.9526   11.5649 N.3   262  UNL262     -0.3437
   1046 H           4.5281   12.0808   11.2764 H     262  UNL262      0.1146
   1047 H           5.6954   12.6927   12.2315 H     262  UNL262      0.1146
   1048 H           5.4573   13.3060   10.7428 H     262  UNL262      0.1146
   1049 N           4.9698   12.9526   14.0296 N.3   263  UNL263     -0.3437
   1050 H           4.5281   12.0808   13.7411 H     263  UNL263      0.1146
   1051 H           5.6954   12.6927   14.6962 H     263  UNL263      0.1146
   1052 H           5.4573   13.3060   13.2075 H     263  UNL263      0.1146
   1053 N           4.9698   12.7305   16.1611 N.3   264  UNL264     -0.3437
   1054 H           4.5281   13.0211   17.0322 H     264  UNL264      0.1146
   1055 H           5.6954   13.4201   15.9704 H     264  UNL264      0.1146
   1056 H           5.4573   11.8604   16.3700 H     264  UNL264      0.1146
   1057 N           5.1764   12.9459   18.6204 N.3   265  UNL265     -0.3437
   1058 H           4.5549   13.2688   19.3606 H     265  UNL265      0.1146
   1059 H           6.0826   12.7936   19.0610 H     265  UNL265      0.1146
   1060 H           4.8367   12.0238   18.3507 H     265  UNL265      0.1146
   1061 N           4.9698   12.7305   21.0906 N.3   266  UNL266     -0.3437
   1062 H           4.5281   13.0211   21.9617 H     266  UNL266      0.1146
   1063 H           5.6954   13.4201   20.8999 H     266  UNL266      0.1146
   1064 H           5.4573   11.8604   21.2995 H     266  UNL266      0.1146
   1065 N           4.9698   12.9526   23.8887 N.3   267  UNL267     -0.3437
   1066 H           4.5281   12.0808   23.6002 H     267  UNL267      0.1146
   1067 H           5.6954   12.6927   24.5553 H     267  UNL267      0.1146
   1068 H           5.4573   13.3060   23.0666 H     267  UNL267      0.1146
   1069 N           4.9698   12.9526   26.3535 N.3   268  UNL268     -0.3437
   1070 H           4.5281   12.0808   26.0650 H     268  UNL268      0.1146
   1071 H           5.6954   12.6927   27.0201 H     268  UNL268      0.1146
   1072 H           5.4573   13.3060   25.5314 H     268  UNL268      0.1146
   1073 N           4.9333   12.6377   28.5648 N.3   269  UNL269     -0.3437
   1074 H           5.0611   12.2545   29.5003 H     269  UNL269      0.1146
   1075 H           4.8382   13.6451   28.6845 H     269  UNL269      0.1146
   1076 H           5.8179   12.4948   28.0795 H     269  UNL269      0.1146
   1077 N           4.9333   12.6377   31.0295 N.3   270  UNL270     -0.3437
   1078 H           5.0611   12.2545   31.9651 H     270  UNL270      0.1146
   1079 H           4.8382   13.6451   31.1493 H     270  UNL270      0.1146
   1080 H           5.8179   12.4948   30.5443 H     270  UNL270      0.1146
   1081 N           4.9698   12.9526   33.7478 N.3   271  UNL271     -0.3437
   1082 H           4.5281   12.0808   33.4593 H     271  UNL271      0.1146
   1083 H           5.6954   12.6927   34.4144 H     271  UNL271      0.1146
   1084 H           5.4573   13.3060   32.9257 H     271  UNL271      0.1146
   1085 N           4.8860   12.7475   36.9980 N.3   272  UNL272     -0.3437
   1086 H           5.0237   12.1539   37.8147 H     272  UNL272      0.1146
   1087 H           5.1651   13.6855   37.2821 H     272  UNL272      0.1146
   1088 H           5.5758   12.4452   36.3115 H     272  UNL272      0.1146
   1089 N           4.9698   15.3623    8.7668 N.3   273  UNL273     -0.3437
   1090 H           4.5281   15.6529    9.6379 H     273  UNL273      0.1146
   1091 H           5.6954   16.0519    8.5761 H     273  UNL273      0.1146
   1092 H           5.4573   14.4922    8.9757 H     273  UNL273      0.1146
   1093 N           5.1475   16.6167   18.6593 N.3   274  UNL274     -0.3437
   1094 H           4.3415   16.5668   19.2807 H     274  UNL274      0.1146
   1095 H           5.9663   16.6615   19.2643 H     274  UNL274      0.1146
   1096 H           5.1954   15.7143   18.1884 H     274  UNL274      0.1146
   1097 N           5.1475   16.6167   30.9831 N.3   275  UNL275     -0.3437
   1098 H           4.3415   16.5668   31.6046 H     275  UNL275      0.1146
   1099 H           5.9663   16.6615   31.5881 H     275  UNL275      0.1146
   1100 H           5.1954   15.7143   30.5123 H     275  UNL275      0.1146
   1101 N           4.9698   15.3623   35.8793 N.3   276  UNL276     -0.3437
   1102 H           4.5281   15.6529   36.7504 H     276  UNL276      0.1146
   1103 H           5.6954   16.0519   35.6886 H     276  UNL276      0.1146
   1104 H           5.4573   14.4922   36.0882 H     276  UNL276      0.1146
   1105 N           7.3327   -0.2063    1.7058 N.3   277  UNL277     -0.3437
   1106 H           6.8910   -1.0781    1.4173 H     277  UNL277      0.1146
   1107 H           8.0583   -0.4663    2.3724 H     277  UNL277      0.1146
   1108 H           7.8202    0.1470    0.8837 H     277  UNL277      0.1146
   1109 N           7.3327   -0.2063    4.1706 N.3   278  UNL278     -0.3437
   1110 H           6.8910   -1.0781    3.8821 H     278  UNL278      0.1146
   1111 H           8.0583   -0.4663    4.8372 H     278  UNL278      0.1146
   1112 H           7.8202    0.1470    3.3485 H     278  UNL278      0.1146
   1113 N           7.3327   -0.2063    6.6353 N.3   279  UNL279     -0.3437
   1114 H           6.8910   -1.0781    6.3468 H     279  UNL279      0.1146
   1115 H           8.0583   -0.4663    7.3019 H     279  UNL279      0.1146
   1116 H           7.8202    0.1470    5.8132 H     279  UNL279      0.1146
   1117 N           7.3327   -0.2063    9.1001 N.3   280  UNL280     -0.3437
   1118 H           6.8910   -1.0781    8.8116 H     280  UNL280      0.1146
   1119 H           8.0583   -0.4663    9.7667 H     280  UNL280      0.1146
   1120 H           7.8202    0.1470    8.2780 H     280  UNL280      0.1146
   1121 N           7.3327   -0.2063   11.5649 N.3   281  UNL281     -0.3437
   1122 H           6.8910   -1.0781   11.2764 H     281  UNL281      0.1146
   1123 H           8.0583   -0.4663   12.2315 H     281  UNL281      0.1146
   1124 H           7.8202    0.1470   10.7428 H     281  UNL281      0.1146
   1125 N           7.3327   -0.2063   14.0296 N.3   282  UNL282     -0.3437
   1126 H           6.8910   -1.0781   13.7411 H     282  UNL282      0.1146
   1127 H           8.0583   -0.4663   14.6962 H     282  UNL282      0.1146
   1128 H           7.8202    0.1470   13.2075 H     282  UNL282      0.1146
   1129 N           7.3327   -0.2063   16.4944 N.3   283  UNL283     -0.3437
   1130 H           6.8910   -1.0781   16.2059 H     283  UNL283      0.1146
   1131 H           8.0583   -0.4663   17.1610 H     283  UNL283      0.1146
   1132 H           7.8202    0.1470   15.6723 H     283  UNL283      0.1146
   1133 N           7.3327   -0.2063   18.9592 N.3   284  UNL284     -0.3437
   1134 H           6.8910   -1.0781   18.6707 H     284  UNL284      0.1146
   1135 H           8.0583   -0.4663   19.6258 H     284  UNL284      0.1146
   1136 H           7.8202    0.1470   18.1371 H     284  UNL284      0.1146
   1137 N           7.3327   -0.2063   21.4240 N.3   285  UNL285     -0.3437
   1138 H           6.8910   -1.0781   21.1355 H     285  UNL285      0.1146
   1139 H           8.0583   -0.4663   22.0906 H     285  UNL285      0.1146
   1140 H           7.8202    0.1470   20.6019 H     285  UNL285      0.1146
   1141 N           7.3327   -0.2063   23.8887 N.3   286  UNL286     -0.3437
   1142 H           6.8910   -1.0781   23.6002 H     286  UNL286      0.1146
   1143 H           8.0583   -0.4663   24.5553 H     286  UNL286      0.1146
   1144 H           7.8202    0.1470   23.0666 H     286  UNL286      0.1146
   1145 N           7.3327   -0.2063   26.3535 N.3   287  UNL287     -0.3437
   1146 H           6.8910   -1.0781   26.0650 H     287  UNL287      0.1146
   1147 H           8.0583   -0.4663   27.0201 H     287  UNL287      0.1146
   1148 H           7.8202    0.1470   25.5314 H     287  UNL287      0.1146
   1149 N           7.3327   -0.5626   31.3271 N.3   288  UNL288     -0.3437
   1150 H           6.8910   -0.0386   30.5730 H     288  UNL288      0.1146
   1151 H           8.0583   -1.1281   30.8888 H     288  UNL288      0.1146
   1152 H           7.8202    0.1255   31.8992 H     288  UNL288      0.1146
   1153 N           7.3327   -0.2063   33.7478 N.3   289  UNL289     -0.3437
   1154 H           6.8910   -1.0781   33.4593 H     289  UNL289      0.1146
   1155 H           8.0583   -0.4663   34.4144 H     289  UNL289      0.1146
   1156 H           7.8202    0.1470   32.9257 H     289  UNL289      0.1146
   1157 N           7.3327    2.4254    1.7058 N.3   290  UNL290     -0.3437
   1158 H           6.8910    1.5536    1.4173 H     290  UNL290      0.1146
   1159 H           8.0583    2.1655    2.3724 H     290  UNL290      0.1146
   1160 H           7.8202    2.7788    0.8837 H     290  UNL290      0.1146
   1161 N           7.3327    2.4254    4.1706 N.3   291  UNL291     -0.3437
   1162 H           6.8910    1.5536    3.8821 H     291  UNL291      0.1146
   1163 H           8.0583    2.1655    4.8372 H     291  UNL291      0.1146
   1164 H           7.8202    2.7788    3.3485 H     291  UNL291      0.1146
   1165 N           7.3327    2.4254    6.6353 N.3   292  UNL292     -0.3437
   1166 H           6.8910    1.5536    6.3468 H     292  UNL292      0.1146
   1167 H           8.0583    2.1655    7.3019 H     292  UNL292      0.1146
   1168 H           7.8202    2.7788    5.8132 H     292  UNL292      0.1146
   1169 N           7.3327    2.4254    9.1001 N.3   293  UNL293     -0.3437
   1170 H           6.8910    1.5536    8.8116 H     293  UNL293      0.1146
   1171 H           8.0583    2.1655    9.7667 H     293  UNL293      0.1146
   1172 H           7.8202    2.7788    8.2780 H     293  UNL293      0.1146
   1173 N           7.3327    2.4254   11.5649 N.3   294  UNL294     -0.3437
   1174 H           6.8910    1.5536   11.2764 H     294  UNL294      0.1146
   1175 H           8.0583    2.1655   12.2315 H     294  UNL294      0.1146
   1176 H           7.8202    2.7788   10.7428 H     294  UNL294      0.1146
   1177 N           7.3327    2.4254   14.0296 N.3   295  UNL295     -0.3437
   1178 H           6.8910    1.5536   13.7411 H     295  UNL295      0.1146
   1179 H           8.0583    2.1655   14.6962 H     295  UNL295      0.1146
   1180 H           7.8202    2.7788   13.2075 H     295  UNL295      0.1146
   1181 N           7.3327    2.4254   16.4944 N.3   296  UNL296     -0.3437
   1182 H           6.8910    1.5536   16.2059 H     296  UNL296      0.1146
   1183 H           8.0583    2.1655   17.1610 H     296  UNL296      0.1146
   1184 H           7.8202    2.7788   15.6723 H     296  UNL296      0.1146
   1185 N           7.3327    2.4254   18.9592 N.3   297  UNL297     -0.3437
   1186 H           6.8910    1.5536   18.6707 H     297  UNL297      0.1146
   1187 H           8.0583    2.1655   19.6258 H     297  UNL297      0.1146
   1188 H           7.8202    2.7788   18.1371 H     297  UNL297      0.1146
   1189 N           7.3327    2.4254   21.4240 N.3   298  UNL298     -0.3437
   1190 H           6.8910    1.5536   21.1355 H     298  UNL298      0.1146
   1191 H           8.0583    2.1655   22.0906 H     298  UNL298      0.1146
   1192 H           7.8202    2.7788   20.6019 H     298  UNL298      0.1146
   1193 N           7.3327    2.4254   23.8887 N.3   299  UNL299     -0.3437
   1194 H           6.8910    1.5536   23.6002 H     299  UNL299      0.1146
   1195 H           8.0583    2.1655   24.5553 H     299  UNL299      0.1146
   1196 H           7.8202    2.7788   23.0666 H     299  UNL299      0.1146
   1197 N           7.3327    2.4254   26.3535 N.3   300  UNL300     -0.3437
   1198 H           6.8910    1.5536   26.0650 H     300  UNL300      0.1146
   1199 H           8.0583    2.1655   27.0201 H     300  UNL300      0.1146
   1200 H           7.8202    2.7788   25.5314 H     300  UNL300      0.1146
   1201 N           7.3327    0.4254   28.8183 N.3   301  UNL301     -0.3437
   1202 H           6.8910   -0.4464   28.5298 H     301  UNL301      0.1146
   1203 H           8.0583    0.1655   29.4849 H     301  UNL301      0.1146
   1204 H           7.8202    0.7788   27.9962 H     301  UNL301      0.1146
   1205 N           7.5393    2.4188   30.9443 N.3   302  UNL302     -0.3437
   1206 H           6.9179    2.7416   31.6845 H     302  UNL302      0.1146
   1207 H           8.4455    2.2664   31.3848 H     302  UNL302      0.1146
   1208 H           7.1996    1.4967   30.6746 H     302  UNL302      0.1146
   1209 N           7.3327    2.4254   33.7478 N.3   303  UNL303     -0.3437
   1210 H           6.8910    1.5536   33.4593 H     303  UNL303      0.1146
   1211 H           8.0583    2.1655   34.4144 H     303  UNL303      0.1146
   1212 H           7.8202    2.7788   32.9257 H     303  UNL303      0.1146
   1213 N           7.5583    0.3042   35.8171 N.3   304  UNL304     -0.3437
   1214 H           6.6485   -0.1097   36.0152 H     304  UNL304      0.1146
   1215 H           7.6454    1.1037   36.4429 H     304  UNL304      0.1146
   1216 H           8.2501   -0.3748   36.1311 H     304  UNL304      0.1146
   1217 N           7.3327    4.8351   -0.6275 N.3   305  UNL305     -0.3437
   1218 H           6.8910    5.1257    0.2436 H     305  UNL305      0.1146
   1219 H           8.0583    5.5247   -0.8182 H     305  UNL305      0.1146
   1220 H           7.8202    3.9650   -0.4186 H     305  UNL305      0.1146
   1221 N           7.3327    4.8351    1.8372 N.3   306  UNL306     -0.3437
   1222 H           6.8910    5.1257    2.7083 H     306  UNL306      0.1146
   1223 H           8.0583    5.5247    1.6465 H     306  UNL306      0.1146
   1224 H           7.8202    3.9650    2.0461 H     306  UNL306      0.1146
   1225 N           7.3327    4.8351    4.3020 N.3   307  UNL307     -0.3437
   1226 H           6.8910    5.1257    5.1731 H     307  UNL307      0.1146
   1227 H           8.0583    5.5247    4.1113 H     307  UNL307      0.1146
   1228 H           7.8202    3.9650    4.5109 H     307  UNL307      0.1146
   1229 N           7.3327    4.8351    6.7668 N.3   308  UNL308     -0.3437
   1230 H           6.8910    5.1257    7.6379 H     308  UNL308      0.1146
   1231 H           8.0583    5.5247    6.5761 H     308  UNL308      0.1146
   1232 H           7.8202    3.9650    6.9757 H     308  UNL308      0.1146
   1233 N           7.3327    4.8351    9.2316 N.3   309  UNL309     -0.3437
   1234 H           6.8910    5.1257   10.1027 H     309  UNL309      0.1146
   1235 H           8.0583    5.5247    9.0409 H     309  UNL309      0.1146
   1236 H           7.8202    3.9650    9.4405 H     309  UNL309      0.1146
   1237 N           7.3327    4.8351   11.6963 N.3   310  UNL310     -0.3437
   1238 H           6.8910    5.1257   12.5674 H     310  UNL310      0.1146
   1239 H           8.0583    5.5247   11.5056 H     310  UNL310      0.1146
   1240 H           7.8202    3.9650   11.9052 H     310  UNL310      0.1146
   1241 N           7.3327    4.8351   14.1611 N.3   311  UNL311     -0.3437
   1242 H           6.8910    5.1257   15.0322 H     311  UNL311      0.1146
   1243 H           8.0583    5.5247   13.9704 H     311  UNL311      0.1146
   1244 H           7.8202    3.9650   14.3700 H     311  UNL311      0.1146
   1245 N           7.2773    5.0213   16.8720 N.3   312  UNL312     -0.3437
   1246 H           7.6934    4.8027   17.7761 H     312  UNL312      0.1146
   1247 H           8.0012    5.4999   16.3379 H     312  UNL312      0.1146
   1248 H           7.1303    4.1267   16.4067 H     312  UNL312      0.1146
   1249 N           7.2773    5.0213   19.3368 N.3   313  UNL313     -0.3437
   1250 H           7.6934    4.8027   20.2409 H     313  UNL313      0.1146
   1251 H           8.0012    5.4999   18.8027 H     313  UNL313      0.1146
   1252 H           7.1303    4.1267   18.8715 H     313  UNL313      0.1146
   1253 N           7.3327    4.8351   21.5554 N.3   314  UNL314     -0.3437
   1254 H           6.8910    5.1257   22.4265 H     314  UNL314      0.1146
   1255 H           8.0583    5.5247   21.3647 H     314  UNL314      0.1146
   1256 H           7.8202    3.9650   21.7643 H     314  UNL314      0.1146
   1257 N           7.2773    5.0213   24.2663 N.3   315  UNL315     -0.3437
   1258 H           7.6934    4.8027   25.1704 H     315  UNL315      0.1146
   1259 H           8.0012    5.4999   23.7323 H     315  UNL315      0.1146
   1260 H           7.1303    4.1267   23.8010 H     315  UNL315      0.1146
   1261 N           7.4629    2.8351   28.9948 N.3   316  UNL316     -0.3437
   1262 H           8.4251    3.1257   28.8274 H     316  UNL316      0.1146
   1263 H           6.8758    3.5247   28.5276 H     316  UNL316      0.1146
   1264 H           7.3385    1.9650   28.4792 H     316  UNL316      0.1146
   1265 N           7.4629    4.8351   31.4596 N.3   317  UNL317     -0.3437
   1266 H           8.4251    5.1257   31.2921 H     317  UNL317      0.1146
   1267 H           6.8758    5.5247   30.9924 H     317  UNL317      0.1146
   1268 H           7.3385    3.9650   30.9440 H     317  UNL317      0.1146
   1269 N           7.3327    5.0572   33.7478 N.3   318  UNL318     -0.3437
   1270 H           6.8910    4.1854   33.4593 H     318  UNL318      0.1146
   1271 H           8.0583    4.7973   34.4144 H     318  UNL318      0.1146
   1272 H           7.8202    5.4106   32.9257 H     318  UNL318      0.1146
   1273 N           7.5583    2.9360   35.8171 N.3   319  UNL319     -0.3437
   1274 H           6.6485    2.5221   36.0152 H     319  UNL319      0.1146
   1275 H           7.6454    3.7355   36.4429 H     319  UNL319      0.1146
   1276 H           8.2501    2.2570   36.1311 H     319  UNL319      0.1146
   1277 N           7.3327    7.6890    1.7058 N.3   320  UNL320     -0.3437
   1278 H           6.8910    6.8172    1.4173 H     320  UNL320      0.1146
   1279 H           8.0583    7.4291    2.3724 H     320  UNL320      0.1146
   1280 H           7.8202    8.0424    0.8837 H     320  UNL320      0.1146
   1281 N           7.3327    7.6890    4.1706 N.3   321  UNL321     -0.3437
   1282 H           6.8910    6.8172    3.8821 H     321  UNL321      0.1146
   1283 H           8.0583    7.4291    4.8372 H     321  UNL321      0.1146
   1284 H           7.8202    8.0424    3.3485 H     321  UNL321      0.1146
   1285 N           7.3327    7.6890    6.6353 N.3   322  UNL322     -0.3437
   1286 H           6.8910    6.8172    6.3468 H     322  UNL322      0.1146
   1287 H           8.0583    7.4291    7.3019 H     322  UNL322      0.1146
   1288 H           7.8202    8.0424    5.8132 H     322  UNL322      0.1146
   1289 N           7.3327    7.6890    9.1001 N.3   323  UNL323     -0.3437
   1290 H           6.8910    6.8172    8.8116 H     323  UNL323      0.1146
   1291 H           8.0583    7.4291    9.7667 H     323  UNL323      0.1146
   1292 H           7.8202    8.0424    8.2780 H     323  UNL323      0.1146
   1293 N           7.3327    7.6890   11.5649 N.3   324  UNL324     -0.3437
   1294 H           6.8910    6.8172   11.2764 H     324  UNL324      0.1146
   1295 H           8.0583    7.4291   12.2315 H     324  UNL324      0.1146
   1296 H           7.8202    8.0424   10.7428 H     324  UNL324      0.1146
   1297 N           7.3327    7.6890   14.0296 N.3   325  UNL325     -0.3437
   1298 H           6.8910    6.8172   13.7411 H     325  UNL325      0.1146
   1299 H           8.0583    7.4291   14.6962 H     325  UNL325      0.1146
   1300 H           7.8202    8.0424   13.2075 H     325  UNL325      0.1146
   1301 N           7.3327    7.4669   16.1611 N.3   326  UNL326     -0.3437
   1302 H           6.8910    7.7575   17.0322 H     326  UNL326      0.1146
   1303 H           8.0583    8.1565   15.9704 H     326  UNL326      0.1146
   1304 H           7.8202    6.5968   16.3700 H     326  UNL326      0.1146
   1305 N           7.5393    7.6823   18.6204 N.3   327  UNL327     -0.3437
   1306 H           6.9179    8.0052   19.3606 H     327  UNL327      0.1146
   1307 H           8.4455    7.5300   19.0610 H     327  UNL327      0.1146
   1308 H           7.1996    6.7602   18.3507 H     327  UNL327      0.1146
   1309 N           7.3327    7.4669   21.0906 N.3   328  UNL328     -0.3437
   1310 H           6.8910    7.7575   21.9617 H     328  UNL328      0.1146
   1311 H           8.0583    8.1565   20.8999 H     328  UNL328      0.1146
   1312 H           7.8202    6.5968   21.2995 H     328  UNL328      0.1146
   1313 N           7.3327    7.3328   23.9328 N.3   329  UNL329     -0.3437
   1314 H           6.8910    7.8568   23.1787 H     329  UNL329      0.1146
   1315 H           8.0583    6.7673   23.4945 H     329  UNL329      0.1146
   1316 H           7.8202    8.0209   24.5049 H     329  UNL329      0.1146
   1317 N           7.3327    7.4669   26.0202 N.3   330  UNL330     -0.3437
   1318 H           6.8910    7.7575   26.8913 H     330  UNL330      0.1146
   1319 H           8.0583    8.1565   25.8295 H     330  UNL330      0.1146
   1320 H           7.8202    6.5968   26.2291 H     330  UNL330      0.1146
   1321 N           7.3327    5.3328   28.8624 N.3   331  UNL331     -0.3437
   1322 H           6.8910    5.8568   28.1082 H     331  UNL331      0.1146
   1323 H           8.0583    4.7673   28.4240 H     331  UNL331      0.1146
   1324 H           7.8202    6.0209   29.4344 H     331  UNL331      0.1146
   1325 N           7.3327    7.3328   31.3271 N.3   332  UNL332     -0.3437
   1326 H           6.8910    7.8568   30.5730 H     332  UNL332      0.1146
   1327 H           8.0583    6.7673   30.8888 H     332  UNL332      0.1146
   1328 H           7.8202    8.0209   31.8992 H     332  UNL332      0.1146
   1329 N           7.3327    7.4669   33.4145 N.3   333  UNL333     -0.3437
   1330 H           6.8910    7.7575   34.2856 H     333  UNL333      0.1146
   1331 H           8.0583    8.1565   33.2238 H     333  UNL333      0.1146
   1332 H           7.8202    6.5968   33.6234 H     333  UNL333      0.1146
   1333 N           7.3327    5.3328   36.2567 N.3   334  UNL334     -0.3437
   1334 H           6.8910    5.8568   35.5025 H     334  UNL334      0.1146
   1335 H           8.0583    4.7673   35.8183 H     334  UNL334      0.1146
   1336 H           7.8202    6.0209   36.8287 H     334  UNL334      0.1146
   1337 N           7.3327   10.0987   -1.0923 N.3   335  UNL335     -0.3437
   1338 H           6.8910   10.3893   -0.2212 H     335  UNL335      0.1146
   1339 H           8.0583   10.7883   -1.2830 H     335  UNL335      0.1146
   1340 H           7.8202    9.2286   -0.8834 H     335  UNL335      0.1146
   1341 N           7.3327   10.0987    1.3725 N.3   336  UNL336     -0.3437
   1342 H           6.8910   10.3893    2.2436 H     336  UNL336      0.1146
   1343 H           8.0583   10.7883    1.1818 H     336  UNL336      0.1146
   1344 H           7.8202    9.2286    1.5814 H     336  UNL336      0.1146
   1345 N           7.3327   10.0987    3.8372 N.3   337  UNL337     -0.3437
   1346 H           6.8910   10.3893    4.7083 H     337  UNL337      0.1146
   1347 H           8.0583   10.7883    3.6465 H     337  UNL337      0.1146
   1348 H           7.8202    9.2286    4.0461 H     337  UNL337      0.1146
   1349 N           7.3327   10.0987    6.3020 N.3   338  UNL338     -0.3437
   1350 H           6.8910   10.3893    7.1731 H     338  UNL338      0.1146
   1351 H           8.0583   10.7883    6.1113 H     338  UNL338      0.1146
   1352 H           7.8202    9.2286    6.5109 H     338  UNL338      0.1146
   1353 N           7.3327   10.0987    8.7668 N.3   339  UNL339     -0.3437
   1354 H           6.8910   10.3893    9.6379 H     339  UNL339      0.1146
   1355 H           8.0583   10.7883    8.5761 H     339  UNL339      0.1146
   1356 H           7.8202    9.2286    8.9757 H     339  UNL339      0.1146
   1357 N           7.3327   10.0987   11.2316 N.3   340  UNL340     -0.3437
   1358 H           6.8910   10.3893   12.1027 H     340  UNL340      0.1146
   1359 H           8.0583   10.7883   11.0409 H     340  UNL340      0.1146
   1360 H           7.8202    9.2286   11.4405 H     340  UNL340      0.1146
   1361 N           7.3327   10.0987   13.6963 N.3   341  UNL341     -0.3437
   1362 H           6.8910   10.3893   14.5674 H     341  UNL341      0.1146
   1363 H           8.0583   10.7883   13.5056 H     341  UNL341      0.1146
   1364 H           7.8202    9.2286   13.9052 H     341  UNL341      0.1146
   1365 N           7.5699    9.9076   16.1895 N.3   342  UNL342     -0.3437
   1366 H           6.6254    9.9095   16.5720 H     342  UNL342      0.1146
   1367 H           7.7096   10.8307   15.7813 H     342  UNL342      0.1146
   1368 H           8.1974    9.8571   16.9908 H     342  UNL342      0.1146
   1369 N           7.3327   10.0987   18.6259 N.3   343  UNL343     -0.3437
   1370 H           6.8910   10.3893   19.4970 H     343  UNL343      0.1146
   1371 H           8.0583   10.7883   18.4352 H     343  UNL343      0.1146
   1372 H           7.8202    9.2286   18.8348 H     343  UNL343      0.1146
   1373 N           7.3327    9.9646   21.4681 N.3   344  UNL344     -0.3437
   1374 H           6.8910   10.4886   20.7139 H     344  UNL344      0.1146
   1375 H           8.0583    9.3991   21.0297 H     344  UNL344      0.1146
   1376 H           7.8202   10.6527   22.0401 H     344  UNL344      0.1146
   1377 N           7.3327   10.0987   23.5554 N.3   345  UNL345     -0.3437
   1378 H           6.8910   10.3893   24.4265 H     345  UNL345      0.1146
   1379 H           8.0583   10.7883   23.3647 H     345  UNL345      0.1146
   1380 H           7.8202    9.2286   23.7643 H     345  UNL345      0.1146
   1381 N           7.3327    9.9646   26.3976 N.3   346  UNL346     -0.3437
   1382 H           6.8910   10.4886   25.6435 H     346  UNL346      0.1146
   1383 H           8.0583    9.3991   25.9593 H     346  UNL346      0.1146
   1384 H           7.8202   10.6527   26.9697 H     346  UNL346      0.1146
   1385 N           7.3327    8.3208   28.8183 N.3   347  UNL347     -0.3437
   1386 H           6.8910    7.4490   28.5298 H     347  UNL347      0.1146
   1387 H           8.0583    8.0609   29.4849 H     347  UNL347      0.1146
   1388 H           7.8202    8.6742   27.9962 H     347  UNL347      0.1146
   1389 N           7.3327   10.0987   30.9497 N.3   348  UNL348     -0.3437
   1390 H           6.8910   10.3893   31.8208 H     348  UNL348      0.1146
   1391 H           8.0583   10.7883   30.7590 H     348  UNL348      0.1146
   1392 H           7.8202    9.2286   31.1586 H     348  UNL348      0.1146
   1393 N           7.3327    9.9646   33.7919 N.3   349  UNL349     -0.3437
   1394 H           6.8910   10.4886   33.0378 H     349  UNL349      0.1146
   1395 H           8.0583    9.3991   33.3536 H     349  UNL349      0.1146
   1396 H           7.8202   10.6527   34.3640 H     349  UNL349      0.1146
   1397 N           7.2489    8.1157   36.9980 N.3   350  UNL350     -0.3437
   1398 H           7.3866    7.5222   37.8147 H     350  UNL350      0.1146
   1399 H           7.5280    9.0537   37.2821 H     350  UNL350      0.1146
   1400 H           7.9387    7.8134   36.3115 H     350  UNL350      0.1146
   1401 N           7.3327   12.9526    1.7058 N.3   351  UNL351     -0.3437
   1402 H           6.8910   12.0808    1.4173 H     351  UNL351      0.1146
   1403 H           8.0583   12.6927    2.3724 H     351  UNL351      0.1146
   1404 H           7.8202   13.3060    0.8837 H     351  UNL351      0.1146
   1405 N           7.3327   12.9526    4.1706 N.3   352  UNL352     -0.3437
   1406 H           6.8910   12.0808    3.8821 H     352  UNL352      0.1146
   1407 H           8.0583   12.6927    4.8372 H     352  UNL352      0.1146
   1408 H           7.8202   13.3060    3.3485 H     352  UNL352      0.1146
   1409 N           7.3327   12.9526    6.6353 N.3   353  UNL353     -0.3437
   1410 H           6.8910   12.0808    6.3468 H     353  UNL353      0.1146
   1411 H           8.0583   12.6927    7.3019 H     353  UNL353      0.1146
   1412 H           7.8202   13.3060    5.8132 H     353  UNL353      0.1146
   1413 N           7.3327   12.9526    9.1001 N.3   354  UNL354     -0.3437
   1414 H           6.8910   12.0808    8.8116 H     354  UNL354      0.1146
   1415 H           8.0583   12.6927    9.7667 H     354  UNL354      0.1146
   1416 H           7.8202   13.3060    8.2780 H     354  UNL354      0.1146
   1417 N           7.3327   12.9526   11.5649 N.3   355  UNL355     -0.3437
   1418 H           6.8910   12.0808   11.2764 H     355  UNL355      0.1146
   1419 H           8.0583   12.6927   12.2315 H     355  UNL355      0.1146
   1420 H           7.8202   13.3060   10.7428 H     355  UNL355      0.1146
   1421 N           7.3327   12.9526   14.0296 N.3   356  UNL356     -0.3437
   1422 H           6.8910   12.0808   13.7411 H     356  UNL356      0.1146
   1423 H           8.0583   12.6927   14.6962 H     356  UNL356      0.1146
   1424 H           7.8202   13.3060   13.2075 H     356  UNL356      0.1146
   1425 N           7.3327   12.7305   16.1611 N.3   357  UNL357     -0.3437
   1426 H           6.8910   13.0211   17.0322 H     357  UNL357      0.1146
   1427 H           8.0583   13.4201   15.9704 H     357  UNL357      0.1146
   1428 H           7.8202   11.8604   16.3700 H     357  UNL357      0.1146
   1429 N           7.3327   12.5964   19.0033 N.3   358  UNL358     -0.3437
   1430 H           6.8910   13.1203   18.2492 H     358  UNL358      0.1146
   1431 H           8.0583   12.0309   18.5649 H     358  UNL358      0.1146
   1432 H           7.8202   13.2845   19.5754 H     358  UNL358      0.1146
   1433 N           7.3327   12.7305   21.0906 N.3   359  UNL359     -0.3437
   1434 H           6.8910   13.0211   21.9617 H     359  UNL359      0.1146
   1435 H           8.0583   13.4201   20.8999 H     359  UNL359      0.1146
   1436 H           7.8202   11.8604   21.2995 H     359  UNL359      0.1146
   1437 N           7.3327   12.9526   23.8887 N.3   360  UNL360     -0.3437
   1438 H           6.8910   12.0808   23.6002 H     360  UNL360      0.1146
   1439 H           8.0583   12.6927   24.5553 H     360  UNL360      0.1146
   1440 H           7.8202   13.3060   23.0666 H     360  UNL360      0.1146
   1441 N           7.3327   12.9526   26.3535 N.3   361  UNL361     -0.3437
   1442 H           6.8910   12.0808   26.0650 H     361  UNL361      0.1146
   1443 H           8.0583   12.6927   27.0201 H     361  UNL361      0.1146
   1444 H           7.8202   13.3060   25.5314 H     361  UNL361      0.1146
   1445 N           7.3327   10.7305   28.4849 N.3   362  UNL362     -0.3437
   1446 H           6.8910   11.0211   29.3560 H     362  UNL362      0.1146
   1447 H           8.0583   11.4201   28.2942 H     362  UNL362      0.1146
   1448 H           7.8202    9.8604   28.6938 H     362  UNL362      0.1146
   1449 N           7.3327   12.5964   31.3271 N.3   363  UNL363     -0.3437
   1450 H           6.8910   13.1203   30.5730 H     363  UNL363      0.1146
   1451 H           8.0583   12.0309   30.8888 H     363  UNL363      0.1146
   1452 H           7.8202   13.2845   31.8992 H     363  UNL363      0.1146
   1453 N           7.3327   12.9526   33.7478 N.3   364  UNL364     -0.3437
   1454 H           6.8910   12.0808   33.4593 H     364  UNL364      0.1146
   1455 H           8.0583   12.6927   34.4144 H     364  UNL364      0.1146
   1456 H           7.8202   13.3060   32.9257 H     364  UNL364      0.1146
   1457 N           7.3327   10.9526   36.2126 N.3   365  UNL365     -0.3437
   1458 H           6.8910   10.0808   35.9241 H     365  UNL365      0.1146
   1459 H           8.0583   10.6927   36.8792 H     365  UNL365      0.1146
   1460 H           7.8202   11.3060   35.3905 H     365  UNL365      0.1146
   1461 N           7.3327   15.3623    8.7668 N.3   366  UNL366     -0.3437
   1462 H           6.8910   15.6529    9.6379 H     366  UNL366      0.1146
   1463 H           8.0583   16.0519    8.5761 H     366  UNL366      0.1146
   1464 H           7.8202   14.4922    8.9757 H     366  UNL366      0.1146
   1465 N           7.3327   15.3623   11.2316 N.3   367  UNL367     -0.3437
   1466 H           6.8910   15.6529   12.1027 H     367  UNL367      0.1146
   1467 H           8.0583   16.0519   11.0409 H     367  UNL367      0.1146
   1468 H           7.8202   14.4922   11.4405 H     367  UNL367      0.1146
   1469 N           7.3327   15.3623   18.6259 N.3   368  UNL368     -0.3437
   1470 H           6.8910   15.6529   19.4970 H     368  UNL368      0.1146
   1471 H           8.0583   16.0519   18.4352 H     368  UNL368      0.1146
   1472 H           7.8202   14.4922   18.8348 H     368  UNL368      0.1146
   1473 N           7.3327   15.3623   30.9497 N.3   369  UNL369     -0.3437
   1474 H           6.8910   15.6529   31.8208 H     369  UNL369      0.1146
   1475 H           8.0583   16.0519   30.7590 H     369  UNL369      0.1146
   1476 H           7.8202   14.4922   31.1586 H     369  UNL369      0.1146
   1477 N           7.3327   15.3623   35.8793 N.3   370  UNL370     -0.3437
   1478 H           6.8910   15.6529   36.7504 H     370  UNL370      0.1146
   1479 H           8.0583   16.0519   35.6886 H     370  UNL370      0.1146
   1480 H           7.8202   14.4922   36.0882 H     370  UNL370      0.1146
   1481 N           9.6956   -0.2063   -0.2942 N.3   371  UNL371     -0.3437
   1482 H           9.2539   -1.0781   -0.5827 H     371  UNL371      0.1146
   1483 H          10.4212   -0.4663    0.3724 H     371  UNL371      0.1146
   1484 H          10.1831    0.1470   -1.1163 H     371  UNL371      0.1146
   1485 N           9.6956   -0.2063    2.1706 N.3   372  UNL372     -0.3437
   1486 H           9.2539   -1.0781    1.8821 H     372  UNL372      0.1146
   1487 H          10.4212   -0.4663    2.8372 H     372  UNL372      0.1146
   1488 H          10.1831    0.1470    1.3485 H     372  UNL372      0.1146
   1489 N           9.6956   -0.2063    4.6353 N.3   373  UNL373     -0.3437
   1490 H           9.2539   -1.0781    4.3468 H     373  UNL373      0.1146
   1491 H          10.4212   -0.4663    5.3019 H     373  UNL373      0.1146
   1492 H          10.1831    0.1470    3.8132 H     373  UNL373      0.1146
   1493 N           9.6402   -0.2423    7.0129 N.3   374  UNL374     -0.3437
   1494 H          10.0563   -0.4609    7.9170 H     374  UNL374      0.1146
   1495 H          10.3642    0.2364    6.4789 H     374  UNL374      0.1146
   1496 H           9.4933   -1.1369    6.5477 H     374  UNL374      0.1146
   1497 N           9.6956   -0.4285    9.2316 N.3   375  UNL375     -0.3437
   1498 H           9.2539   -0.1379   10.1027 H     375  UNL375      0.1146
   1499 H          10.4212    0.2611    9.0409 H     375  UNL375      0.1146
   1500 H          10.1831   -1.2986    9.4405 H     375  UNL375      0.1146
   1501 N           9.6741   -0.6012   11.9546 N.3   376  UNL376     -0.3437
   1502 H           9.7325    0.0571   12.7302 H     376  UNL376      0.1146
   1503 H           9.5492   -0.0365   11.1156 H     376  UNL376      0.1146
   1504 H          10.5981   -1.0231   11.8741 H     376  UNL376      0.1146
   1505 N           9.6956   -0.2063   14.4944 N.3   377  UNL377     -0.3437
   1506 H           9.2539   -1.0781   14.2059 H     377  UNL377      0.1146
   1507 H          10.4212   -0.4663   15.1610 H     377  UNL377      0.1146
   1508 H          10.1831    0.1470   13.6723 H     377  UNL377      0.1146
   1509 N           9.6956   -0.2063   16.9592 N.3   378  UNL378     -0.3437
   1510 H           9.2539   -1.0781   16.6707 H     378  UNL378      0.1146
   1511 H          10.4212   -0.4663   17.6258 H     378  UNL378      0.1146
   1512 H          10.1831    0.1470   16.1371 H     378  UNL378      0.1146
   1513 N           9.6402   -0.2423   19.3368 N.3   379  UNL379     -0.3437
   1514 H          10.0563   -0.4609   20.2409 H     379  UNL379      0.1146
   1515 H          10.3642    0.2364   18.8027 H     379  UNL379      0.1146
   1516 H           9.4933   -1.1369   18.8715 H     379  UNL379      0.1146
   1517 N           9.6402   -0.2423   21.8015 N.3   380  UNL380     -0.3437
   1518 H          10.0563   -0.4609   22.7056 H     380  UNL380      0.1146
   1519 H          10.3642    0.2364   21.2675 H     380  UNL380      0.1146
   1520 H           9.4933   -1.1369   21.3363 H     380  UNL380      0.1146
   1521 N           9.6402   -0.2423   24.2663 N.3   381  UNL381     -0.3437
   1522 H          10.0563   -0.4609   25.1704 H     381  UNL381      0.1146
   1523 H          10.3642    0.2364   23.7323 H     381  UNL381      0.1146
   1524 H           9.4933   -1.1369   23.8010 H     381  UNL381      0.1146
   1525 N           9.6402   -0.2423   26.7311 N.3   382  UNL382     -0.3437
   1526 H          10.0563   -0.4609   27.6352 H     382  UNL382      0.1146
   1527 H          10.3642    0.2364   26.1970 H     382  UNL382      0.1146
   1528 H           9.4933   -1.1369   26.2658 H     382  UNL382      0.1146
   1529 N           9.9819   -0.2300   28.9497 N.3   383  UNL383     -0.3437
   1530 H          10.4790   -0.0500   29.8208 H     383  UNL383      0.1146
   1531 H          10.1001   -1.2240   28.7590 H     383  UNL383      0.1146
   1532 H           8.9930   -0.0998   29.1586 H     383  UNL383      0.1146
   1533 N           9.6956   -0.5626   31.7919 N.3   384  UNL384     -0.3437
   1534 H           9.2539   -0.0386   31.0378 H     384  UNL384      0.1146
   1535 H          10.4212   -1.1281   31.3536 H     384  UNL384      0.1146
   1536 H          10.1831    0.1255   32.3640 H     384  UNL384      0.1146
   1537 N           9.6956   -0.4285   33.8793 N.3   385  UNL385     -0.3437
   1538 H           9.2539   -0.1379   34.7504 H     385  UNL385      0.1146
   1539 H          10.4212    0.2611   33.6886 H     385  UNL385      0.1146
   1540 H          10.1831   -1.2986   34.0882 H     385  UNL385      0.1146
   1541 N           9.6956    2.4254    1.7058 N.3   386  UNL386     -0.3437
   1542 H           9.2539    1.5536    1.4173 H     386  UNL386      0.1146
   1543 H          10.4212    2.1655    2.3724 H     386  UNL386      0.1146
   1544 H          10.1831    2.7788    0.8837 H     386  UNL386      0.1146
   1545 N           9.6956    2.4254    4.1706 N.3   387  UNL387     -0.3437
   1546 H           9.2539    1.5536    3.8821 H     387  UNL387      0.1146
   1547 H          10.4212    2.1655    4.8372 H     387  UNL387      0.1146
   1548 H          10.1831    2.7788    3.3485 H     387  UNL387      0.1146
   1549 N           9.6956    2.4254    6.6353 N.3   388  UNL388     -0.3437
   1550 H           9.2539    1.5536    6.3468 H     388  UNL388      0.1146
   1551 H          10.4212    2.1655    7.3019 H     388  UNL388      0.1146
   1552 H          10.1831    2.7788    5.8132 H     388  UNL388      0.1146
   1553 N           9.6956    2.4254    9.1001 N.3   389  UNL389     -0.3437
   1554 H           9.2539    1.5536    8.8116 H     389  UNL389      0.1146
   1555 H          10.4212    2.1655    9.7667 H     389  UNL389      0.1146
   1556 H          10.1831    2.7788    8.2780 H     389  UNL389      0.1146
   1557 N           9.6956    2.4254   11.5649 N.3   390  UNL390     -0.3437
   1558 H           9.2539    1.5536   11.2764 H     390  UNL390      0.1146
   1559 H          10.4212    2.1655   12.2315 H     390  UNL390      0.1146
   1560 H          10.1831    2.7788   10.7428 H     390  UNL390      0.1146
   1561 N           9.6956    2.4254   14.0296 N.3   391  UNL391     -0.3437
   1562 H           9.2539    1.5536   13.7411 H     391  UNL391      0.1146
   1563 H          10.4212    2.1655   14.6962 H     391  UNL391      0.1146
   1564 H          10.1831    2.7788   13.2075 H     391  UNL391      0.1146
   1565 N           9.6956    2.4254   16.4944 N.3   392  UNL392     -0.3437
   1566 H           9.2539    1.5536   16.2059 H     392  UNL392      0.1146
   1567 H          10.4212    2.1655   17.1610 H     392  UNL392      0.1146
   1568 H          10.1831    2.7788   15.6723 H     392  UNL392      0.1146
   1569 N           9.6956    2.4254   18.9592 N.3   393  UNL393     -0.3437
   1570 H           9.2539    1.5536   18.6707 H     393  UNL393      0.1146
   1571 H          10.4212    2.1655   19.6258 H     393  UNL393      0.1146
   1572 H          10.1831    2.7788   18.1371 H     393  UNL393      0.1146
   1573 N           9.6956    2.4254   21.4240 N.3   394  UNL394     -0.3437
   1574 H           9.2539    1.5536   21.1355 H     394  UNL394      0.1146
   1575 H          10.4212    2.1655   22.0906 H     394  UNL394      0.1146
   1576 H          10.1831    2.7788   20.6019 H     394  UNL394      0.1146
   1577 N           9.6956    2.4254   23.8887 N.3   395  UNL395     -0.3437
   1578 H           9.2539    1.5536   23.6002 H     395  UNL395      0.1146
   1579 H          10.4212    2.1655   24.5553 H     395  UNL395      0.1146
   1580 H          10.1831    2.7788   23.0666 H     395  UNL395      0.1146
   1581 N           9.6956    2.4254   26.3535 N.3   396  UNL396     -0.3437
   1582 H           9.2539    1.5536   26.0650 H     396  UNL396      0.1146
   1583 H          10.4212    2.1655   27.0201 H     396  UNL396      0.1146
   1584 H          10.1831    2.7788   25.5314 H     396  UNL396      0.1146
   1585 N           9.6592    2.1105   28.5648 N.3   397  UNL397     -0.3437
   1586 H           9.7869    1.7273   29.5003 H     397  UNL397      0.1146
   1587 H           9.5641    3.1180   28.6845 H     397  UNL397      0.1146
   1588 H          10.5438    1.9677   28.0795 H     397  UNL397      0.1146
   1589 N           9.6956    2.0692   31.3271 N.3   398  UNL398     -0.3437
   1590 H           9.2539    2.5932   30.5730 H     398  UNL398      0.1146
   1591 H          10.4212    1.5037   30.8888 H     398  UNL398      0.1146
   1592 H          10.1831    2.7573   31.8992 H     398  UNL398      0.1146
   1593 N           9.6956    2.4254   33.7478 N.3   399  UNL399     -0.3437
   1594 H           9.2539    1.5536   33.4593 H     399  UNL399      0.1146
   1595 H          10.4212    2.1655   34.4144 H     399  UNL399      0.1146
   1596 H          10.1831    2.7788   32.9257 H     399  UNL399      0.1146
   1597 N           9.6119    2.2203   36.9980 N.3   400  UNL400     -0.3437
   1598 H           9.7496    1.6268   37.8147 H     400  UNL400      0.1146
   1599 H           9.8910    3.1583   37.2821 H     400  UNL400      0.1146
   1600 H          10.3016    1.9180   36.3115 H     400  UNL400      0.1146
   1601 N           9.9022    5.0505   -1.0977 N.3   401  UNL401     -0.3437
   1602 H           9.2808    5.3734   -0.3575 H     401  UNL401      0.1146
   1603 H          10.8084    4.8982   -0.6572 H     401  UNL401      0.1146
   1604 H           9.5626    4.1285   -1.3674 H     401  UNL401      0.1146
   1605 N           9.9022    5.0505    1.3670 N.3   402  UNL402     -0.3437
   1606 H           9.2808    5.3734    2.1072 H     402  UNL402      0.1146
   1607 H          10.8084    4.8982    1.8076 H     402  UNL402      0.1146
   1608 H           9.5626    4.1285    1.0973 H     402  UNL402      0.1146
   1609 N           9.6592    4.7423    3.9171 N.3   403  UNL403     -0.3437
   1610 H           9.7869    4.3591    4.8526 H     403  UNL403      0.1146
   1611 H           9.5641    5.7498    4.0368 H     403  UNL403      0.1146
   1612 H          10.5438    4.5994    3.4318 H     403  UNL403      0.1146
   1613 N           9.6956    5.0572    6.6353 N.3   404  UNL404     -0.3437
   1614 H           9.2539    4.1854    6.3468 H     404  UNL404      0.1146
   1615 H          10.4212    4.7973    7.3019 H     404  UNL404      0.1146
   1616 H          10.1831    5.4106    5.8132 H     404  UNL404      0.1146
   1617 N           9.6956    5.0572    9.1001 N.3   405  UNL405     -0.3437
   1618 H           9.2539    4.1854    8.8116 H     405  UNL405      0.1146
   1619 H          10.4212    4.7973    9.7667 H     405  UNL405      0.1146
   1620 H          10.1831    5.4106    8.2780 H     405  UNL405      0.1146
   1621 N           9.6956    5.0572   11.5649 N.3   406  UNL406     -0.3437
   1622 H           9.2539    4.1854   11.2764 H     406  UNL406      0.1146
   1623 H          10.4212    4.7973   12.2315 H     406  UNL406      0.1146
   1624 H          10.1831    5.4106   10.7428 H     406  UNL406      0.1146
   1625 N           9.6956    5.0572   14.0296 N.3   407  UNL407     -0.3437
   1626 H           9.2539    4.1854   13.7411 H     407  UNL407      0.1146
   1627 H          10.4212    4.7973   14.6962 H     407  UNL407      0.1146
   1628 H          10.1831    5.4106   13.2075 H     407  UNL407      0.1146
   1629 N           9.6956    5.0572   16.4944 N.3   408  UNL408     -0.3437
   1630 H           9.2539    4.1854   16.2059 H     408  UNL408      0.1146
   1631 H          10.4212    4.7973   17.1610 H     408  UNL408      0.1146
   1632 H          10.1831    5.4106   15.6723 H     408  UNL408      0.1146
   1633 N           9.6956    5.0572   18.9592 N.3   409  UNL409     -0.3437
   1634 H           9.2539    4.1854   18.6707 H     409  UNL409      0.1146
   1635 H          10.4212    4.7973   19.6258 H     409  UNL409      0.1146
   1636 H          10.1831    5.4106   18.1371 H     409  UNL409      0.1146
   1637 N           9.6956    5.0572   21.4240 N.3   410  UNL410     -0.3437
   1638 H           9.2539    4.1854   21.1355 H     410  UNL410      0.1146
   1639 H          10.4212    4.7973   22.0906 H     410  UNL410      0.1146
   1640 H          10.1831    5.4106   20.6019 H     410  UNL410      0.1146
   1641 N           9.6956    5.0572   23.8887 N.3   411  UNL411     -0.3437
   1642 H           9.2539    4.1854   23.6002 H     411  UNL411      0.1146
   1643 H          10.4212    4.7973   24.5553 H     411  UNL411      0.1146
   1644 H          10.1831    5.4106   23.0666 H     411  UNL411      0.1146
   1645 N           9.6956    5.0572   26.3535 N.3   412  UNL412     -0.3437
   1646 H           9.2539    4.1854   26.0650 H     412  UNL412      0.1146
   1647 H          10.4212    4.7973   27.0201 H     412  UNL412      0.1146
   1648 H          10.1831    5.4106   25.5314 H     412  UNL412      0.1146
   1649 N           9.6592    4.7423   28.5648 N.3   413  UNL413     -0.3437
   1650 H           9.7869    4.3591   29.5003 H     413  UNL413      0.1146
   1651 H           9.5641    5.7498   28.6845 H     413  UNL413      0.1146
   1652 H          10.5438    4.5994   28.0795 H     413  UNL413      0.1146
   1653 N           9.9022    5.0505   30.9443 N.3   414  UNL414     -0.3437
   1654 H           9.2808    5.3734   31.6845 H     414  UNL414      0.1146
   1655 H          10.8084    4.8982   31.3848 H     414  UNL414      0.1146
   1656 H           9.5626    4.1285   30.6746 H     414  UNL414      0.1146
   1657 N           9.6592    4.7423   33.4943 N.3   415  UNL415     -0.3437
   1658 H           9.7869    4.3591   34.4298 H     415  UNL415      0.1146
   1659 H           9.5641    5.7498   33.6140 H     415  UNL415      0.1146
   1660 H          10.5438    4.5994   33.0091 H     415  UNL415      0.1146
   1661 N           9.6119    4.8521   36.9980 N.3   416  UNL416     -0.3437
   1662 H           9.7496    4.2586   37.8147 H     416  UNL416      0.1146
   1663 H           9.8910    5.7901   37.2821 H     416  UNL416      0.1146
   1664 H          10.3016    4.5498   36.3115 H     416  UNL416      0.1146
   1665 N           9.6956    7.4669   -0.6275 N.3   417  UNL417     -0.3437
   1666 H           9.2539    7.7575    0.2436 H     417  UNL417      0.1146
   1667 H          10.4212    8.1565   -0.8182 H     417  UNL417      0.1146
   1668 H          10.1831    6.5968   -0.4186 H     417  UNL417      0.1146
   1669 N           9.6956    7.4669    1.8372 N.3   418  UNL418     -0.3437
   1670 H           9.2539    7.7575    2.7083 H     418  UNL418      0.1146
   1671 H          10.4212    8.1565    1.6465 H     418  UNL418      0.1146
   1672 H          10.1831    6.5968    2.0461 H     418  UNL418      0.1146
   1673 N           9.6956    7.4669    4.3020 N.3   419  UNL419     -0.3437
   1674 H           9.2539    7.7575    5.1731 H     419  UNL419      0.1146
   1675 H          10.4212    8.1565    4.1113 H     419  UNL419      0.1146
   1676 H          10.1831    6.5968    4.5109 H     419  UNL419      0.1146
   1677 N           9.6956    7.4669    6.7668 N.3   420  UNL420     -0.3437
   1678 H           9.2539    7.7575    7.6379 H     420  UNL420      0.1146
   1679 H          10.4212    8.1565    6.5761 H     420  UNL420      0.1146
   1680 H          10.1831    6.5968    6.9757 H     420  UNL420      0.1146
   1681 N           9.6956    7.4669    9.2316 N.3   421  UNL421     -0.3437
   1682 H           9.2539    7.7575   10.1027 H     421  UNL421      0.1146
   1683 H          10.4212    8.1565    9.0409 H     421  UNL421      0.1146
   1684 H          10.1831    6.5968    9.4405 H     421  UNL421      0.1146
   1685 N           9.6956    7.4669   11.6963 N.3   422  UNL422     -0.3437
   1686 H           9.2539    7.7575   12.5674 H     422  UNL422      0.1146
   1687 H          10.4212    8.1565   11.5056 H     422  UNL422      0.1146
   1688 H          10.1831    6.5968   11.9052 H     422  UNL422      0.1146
   1689 N           9.6741    7.2941   14.4194 N.3   423  UNL423     -0.3437
   1690 H           9.7325    7.9525   15.1950 H     423  UNL423      0.1146
   1691 H           9.5492    7.8589   13.5804 H     423  UNL423      0.1146
   1692 H          10.5981    6.8722   14.3389 H     423  UNL423      0.1146
   1693 N           9.6956    7.6890   16.9592 N.3   424  UNL424     -0.3437
   1694 H           9.2539    6.8172   16.6707 H     424  UNL424      0.1146
   1695 H          10.4212    7.4291   17.6258 H     424  UNL424      0.1146
   1696 H          10.1831    8.0424   16.1371 H     424  UNL424      0.1146
   1697 N           9.6956    7.6890   19.4240 N.3   425  UNL425     -0.3437
   1698 H           9.2539    6.8172   19.1355 H     425  UNL425      0.1146
   1699 H          10.4212    7.4291   20.0906 H     425  UNL425      0.1146
   1700 H          10.1831    8.0424   18.6019 H     425  UNL425      0.1146
   1701 N           9.6956    7.6890   21.8887 N.3   426  UNL426     -0.3437
   1702 H           9.2539    6.8172   21.6002 H     426  UNL426      0.1146
   1703 H          10.4212    7.4291   22.5553 H     426  UNL426      0.1146
   1704 H          10.1831    8.0424   21.0666 H     426  UNL426      0.1146
   1705 N           9.6956    7.6890   24.3535 N.3   427  UNL427     -0.3437
   1706 H           9.2539    6.8172   24.0650 H     427  UNL427      0.1146
   1707 H          10.4212    7.4291   25.0201 H     427  UNL427      0.1146
   1708 H          10.1831    8.0424   23.5314 H     427  UNL427      0.1146
   1709 N           9.6956    7.6890   26.8183 N.3   428  UNL428     -0.3437
   1710 H           9.2539    6.8172   26.5298 H     428  UNL428      0.1146
   1711 H          10.4212    7.4291   27.4849 H     428  UNL428      0.1146
   1712 H          10.1831    8.0424   25.9962 H     428  UNL428      0.1146
   1713 N           9.6956    7.6890   29.2830 N.3   429  UNL429     -0.3437
   1714 H           9.2539    6.8172   28.9945 H     429  UNL429      0.1146
   1715 H          10.4212    7.4291   29.9496 H     429  UNL429      0.1146
   1716 H          10.1831    8.0424   28.4609 H     429  UNL429      0.1146
   1717 N           9.6402    7.6531   31.6606 N.3   430  UNL430     -0.3437
   1718 H          10.0563    7.4345   32.5647 H     430  UNL430      0.1146
   1719 H          10.3642    8.1317   31.1266 H     430  UNL430      0.1146
   1720 H           9.4933    6.7585   31.1954 H     430  UNL430      0.1146
   1721 N           9.9819    7.6654   33.8793 N.3   431  UNL431     -0.3437
   1722 H          10.4790    7.8454   34.7504 H     431  UNL431      0.1146
   1723 H          10.1001    6.6714   33.6886 H     431  UNL431      0.1146
   1724 H           8.9930    7.7956   34.0882 H     431  UNL431      0.1146
   1725 N           9.6956   10.0987   -1.0923 N.3   432  UNL432     -0.3437
   1726 H           9.2539   10.3893   -0.2212 H     432  UNL432      0.1146
   1727 H          10.4212   10.7883   -1.2830 H     432  UNL432      0.1146
   1728 H          10.1831    9.2286   -0.8834 H     432  UNL432      0.1146
   1729 N           9.6956   10.0987    1.3725 N.3   433  UNL433     -0.3437
   1730 H           9.2539   10.3893    2.2436 H     433  UNL433      0.1146
   1731 H          10.4212   10.7883    1.1818 H     433  UNL433      0.1146
   1732 H          10.1831    9.2286    1.5814 H     433  UNL433      0.1146
   1733 N           9.6956   10.0987    3.8372 N.3   434  UNL434     -0.3437
   1734 H           9.2539   10.3893    4.7083 H     434  UNL434      0.1146
   1735 H          10.4212   10.7883    3.6465 H     434  UNL434      0.1146
   1736 H          10.1831    9.2286    4.0461 H     434  UNL434      0.1146
   1737 N           9.6956   10.0987    6.3020 N.3   435  UNL435     -0.3437
   1738 H           9.2539   10.3893    7.1731 H     435  UNL435      0.1146
   1739 H          10.4212   10.7883    6.1113 H     435  UNL435      0.1146
   1740 H          10.1831    9.2286    6.5109 H     435  UNL435      0.1146
   1741 N           9.6956   10.0987    8.7668 N.3   436  UNL436     -0.3437
   1742 H           9.2539   10.3893    9.6379 H     436  UNL436      0.1146
   1743 H          10.4212   10.7883    8.5761 H     436  UNL436      0.1146
   1744 H          10.1831    9.2286    8.9757 H     436  UNL436      0.1146
   1745 N           9.6956   10.0987   11.2316 N.3   437  UNL437     -0.3437
   1746 H           9.2539   10.3893   12.1027 H     437  UNL437      0.1146
   1747 H          10.4212   10.7883   11.0409 H     437  UNL437      0.1146
   1748 H          10.1831    9.2286   11.4405 H     437  UNL437      0.1146
   1749 N           9.6956   10.0987   13.6963 N.3   438  UNL438     -0.3437
   1750 H           9.2539   10.3893   14.5674 H     438  UNL438      0.1146
   1751 H          10.4212   10.7883   13.5056 H     438  UNL438      0.1146
   1752 H          10.1831    9.2286   13.9052 H     438  UNL438      0.1146
   1753 N           9.6956   10.0987   16.1611 N.3   439  UNL439     -0.3437
   1754 H           9.2539   10.3893   17.0322 H     439  UNL439      0.1146
   1755 H          10.4212   10.7883   15.9704 H     439  UNL439      0.1146
   1756 H          10.1831    9.2286   16.3700 H     439  UNL439      0.1146
   1757 N           9.6956   10.0987   18.6259 N.3   440  UNL440     -0.3437
   1758 H           9.2539   10.3893   19.4970 H     440  UNL440      0.1146
   1759 H          10.4212   10.7883   18.4352 H     440  UNL440      0.1146
   1760 H          10.1831    9.2286   18.8348 H     440  UNL440      0.1146
   1761 N           9.9022   10.3141   21.0852 N.3   441  UNL441     -0.3437
   1762 H           9.2808   10.6370   21.8254 H     441  UNL441      0.1146
   1763 H          10.8084   10.1618   21.5257 H     441  UNL441      0.1146
   1764 H           9.5626    9.3920   20.8155 H     441  UNL441      0.1146
   1765 N           9.6956   10.0987   23.5554 N.3   442  UNL442     -0.3437
   1766 H           9.2539   10.3893   24.4265 H     442  UNL442      0.1146
   1767 H          10.4212   10.7883   23.3647 H     442  UNL442      0.1146
   1768 H          10.1831    9.2286   23.7643 H     442  UNL442      0.1146
   1769 N           9.9022   10.3141   26.0147 N.3   443  UNL443     -0.3437
   1770 H           9.2808   10.6370   26.7549 H     443  UNL443      0.1146
   1771 H          10.8084   10.1618   26.4553 H     443  UNL443      0.1146
   1772 H           9.5626    9.3920   25.7450 H     443  UNL443      0.1146
   1773 N           9.9819   10.2972   28.4849 N.3   444  UNL444     -0.3437
   1774 H          10.4790   10.4772   29.3560 H     444  UNL444      0.1146
   1775 H          10.1001    9.3032   28.2942 H     444  UNL444      0.1146
   1776 H           8.9930   10.4274   28.6938 H     444  UNL444      0.1146
   1777 N           9.6956   10.0987   30.9497 N.3   445  UNL445     -0.3437
   1778 H           9.2539   10.3893   31.8208 H     445  UNL445      0.1146
   1779 H          10.4212   10.7883   30.7590 H     445  UNL445      0.1146
   1780 H          10.1831    9.2286   31.1586 H     445  UNL445      0.1146
   1781 N           9.9022   10.3141   33.4090 N.3   446  UNL446     -0.3437
   1782 H           9.2808   10.6370   34.1492 H     446  UNL446      0.1146
   1783 H          10.8084   10.1618   33.8496 H     446  UNL446      0.1146
   1784 H           9.5626    9.3920   33.1394 H     446  UNL446      0.1146
   1785 N           9.6956   10.0987   35.8793 N.3   447  UNL447     -0.3437
   1786 H           9.2539   10.3893   36.7504 H     447  UNL447      0.1146
   1787 H          10.4212   10.7883   35.6886 H     447  UNL447      0.1146
   1788 H          10.1831    9.2286   36.0882 H     447  UNL447      0.1146
   1789 N           9.6402   12.9167   -0.8462 N.3   448  UNL448     -0.3437
   1790 H          10.0563   12.6980    0.0579 H     448  UNL448      0.1146
   1791 H          10.3642   13.3953   -1.3802 H     448  UNL448      0.1146
   1792 H           9.4933   12.0220   -1.3114 H     448  UNL448      0.1146
   1793 N           9.6592   12.6377    1.4523 N.3   449  UNL449     -0.3437
   1794 H           9.7869   12.2545    2.3878 H     449  UNL449      0.1146
   1795 H           9.5641   13.6451    1.5720 H     449  UNL449      0.1146
   1796 H          10.5438   12.4948    0.9671 H     449  UNL449      0.1146
   1797 N           9.9819   12.9290    3.8372 N.3   450  UNL450     -0.3437
   1798 H          10.4790   13.1089    4.7083 H     450  UNL450      0.1146
   1799 H          10.1001   11.9350    3.6465 H     450  UNL450      0.1146
   1800 H           8.9930   13.0592    4.0461 H     450  UNL450      0.1146
   1801 N           9.6119   12.7475    6.4207 N.3   451  UNL451     -0.3437
   1802 H           9.7496   12.1539    7.2375 H     451  UNL451      0.1146
   1803 H           9.8910   13.6855    6.7049 H     451  UNL451      0.1146
   1804 H          10.3016   12.4452    5.7343 H     451  UNL451      0.1146
   1805 N           9.6956   12.9526    9.1001 N.3   452  UNL452     -0.3437
   1806 H           9.2539   12.0808    8.8116 H     452  UNL452      0.1146
   1807 H          10.4212   12.6927    9.7667 H     452  UNL452      0.1146
   1808 H          10.1831   13.3060    8.2780 H     452  UNL452      0.1146
   1809 N           9.6956   12.9526   11.5649 N.3   453  UNL453     -0.3437
   1810 H           9.2539   12.0808   11.2764 H     453  UNL453      0.1146
   1811 H          10.4212   12.6927   12.2315 H     453  UNL453      0.1146
   1812 H          10.1831   13.3060   10.7428 H     453  UNL453      0.1146
   1813 N           9.6956   12.9526   14.0296 N.3   454  UNL454     -0.3437
   1814 H           9.2539   12.0808   13.7411 H     454  UNL454      0.1146
   1815 H          10.4212   12.6927   14.6962 H     454  UNL454      0.1146
   1816 H          10.1831   13.3060   13.2075 H     454  UNL454      0.1146
   1817 N           9.6956   12.9526   16.4944 N.3   455  UNL455     -0.3437
   1818 H           9.2539   12.0808   16.2059 H     455  UNL455      0.1146
   1819 H          10.4212   12.6927   17.1610 H     455  UNL455      0.1146
   1820 H          10.1831   13.3060   15.6723 H     455  UNL455      0.1146
   1821 N           9.6956   12.9526   18.9592 N.3   456  UNL456     -0.3437
   1822 H           9.2539   12.0808   18.6707 H     456  UNL456      0.1146
   1823 H          10.4212   12.6927   19.6258 H     456  UNL456      0.1146
   1824 H          10.1831   13.3060   18.1371 H     456  UNL456      0.1146
   1825 N           9.6956   12.7305   21.0906 N.3   457  UNL457     -0.3437
   1826 H           9.2539   13.0211   21.9617 H     457  UNL457      0.1146
   1827 H          10.4212   13.4201   20.8999 H     457  UNL457      0.1146
   1828 H          10.1831   11.8604   21.2995 H     457  UNL457      0.1146
   1829 N           9.6402   12.9167   23.8015 N.3   458  UNL458     -0.3437
   1830 H          10.0563   12.6980   24.7056 H     458  UNL458      0.1146
   1831 H          10.3642   13.3953   23.2675 H     458  UNL458      0.1146
   1832 H           9.4933   12.0220   23.3363 H     458  UNL458      0.1146
   1833 N           9.6956   12.7305   26.0202 N.3   459  UNL459     -0.3437
   1834 H           9.2539   13.0211   26.8913 H     459  UNL459      0.1146
   1835 H          10.4212   13.4201   25.8295 H     459  UNL459      0.1146
   1836 H          10.1831   11.8604   26.2291 H     459  UNL459      0.1146
   1837 N           9.6592   12.6377   28.5648 N.3   460  UNL460     -0.3437
   1838 H           9.7869   12.2545   29.5003 H     460  UNL460      0.1146
   1839 H           9.5641   13.6451   28.6845 H     460  UNL460      0.1146
   1840 H          10.5438   12.4948   28.0795 H     460  UNL460      0.1146
   1841 N           9.9022   12.9459   30.9443 N.3   461  UNL461     -0.3437
   1842 H           9.2808   13.2688   31.6845 H     461  UNL461      0.1146
   1843 H          10.8084   12.7936   31.3848 H     461  UNL461      0.1146
   1844 H           9.5626   12.0238   30.6746 H     461  UNL461      0.1146
   1845 N           9.6956   12.7305   33.4145 N.3   462  UNL462     -0.3437
   1846 H           9.2539   13.0211   34.2856 H     462  UNL462      0.1146
   1847 H          10.4212   13.4201   33.2238 H     462  UNL462      0.1146
   1848 H          10.1831   11.8604   33.6234 H     462  UNL462      0.1146
   1849 N          10.0260   12.6200   36.8793 N.3   463  UNL463     -0.3437
   1850 H          10.0575   12.0922   37.7504 H     463  UNL463      0.1146
   1851 H           9.0392   12.7886   36.6886 H     463  UNL463      0.1146
   1852 H          10.4313   13.5313   37.0882 H     463  UNL463      0.1146
   1853 N           9.6956   15.3623    8.7668 N.3   464  UNL464     -0.3437
   1854 H           9.2539   15.6529    9.6379 H     464  UNL464      0.1146
   1855 H          10.4212   16.0519    8.5761 H     464  UNL464      0.1146
   1856 H          10.1831   14.4922    8.9757 H     464  UNL464      0.1146
   1857 N           9.8733   16.6167   18.6593 N.3   465  UNL465     -0.3437
   1858 H           9.0673   16.5668   19.2807 H     465  UNL465      0.1146
   1859 H          10.6921   16.6615   19.2643 H     465  UNL465      0.1146
   1860 H           9.9212   15.7143   18.1884 H     465  UNL465      0.1146
   1861 N           9.8733   16.6167   30.9831 N.3   466  UNL466     -0.3437
   1862 H           9.0673   16.5668   31.6046 H     466  UNL466      0.1146
   1863 H          10.6921   16.6615   31.5881 H     466  UNL466      0.1146
   1864 H           9.9212   15.7143   30.5123 H     466  UNL466      0.1146
   1865 N           9.6956   15.3623   35.8793 N.3   467  UNL467     -0.3437
   1866 H           9.2539   15.6529   36.7504 H     467  UNL467      0.1146
   1867 H          10.4212   16.0519   35.6886 H     467  UNL467      0.1146
   1868 H          10.1831   14.4922   36.0882 H     467  UNL467      0.1146
   1869 N          12.2652   -0.2130    3.8318 N.3   468  UNL468     -0.3437
   1870 H          11.6437    0.1098    4.5720 H     468  UNL468      0.1146
   1871 H          13.1713   -0.3654    4.2724 H     468  UNL468      0.1146
   1872 H          11.9255   -1.1351    3.5621 H     468  UNL468      0.1146
   1873 N          12.0586   -0.2063    9.1001 N.3   469  UNL469     -0.3437
   1874 H          11.6169   -1.0781    8.8116 H     469  UNL469      0.1146
   1875 H          12.7842   -0.4663    9.7667 H     469  UNL469      0.1146
   1876 H          12.5461    0.1470    8.2780 H     469  UNL469      0.1146
   1877 N          12.0586   -0.2063   11.5649 N.3   470  UNL470     -0.3437
   1878 H          11.6169   -1.0781   11.2764 H     470  UNL470      0.1146
   1879 H          12.7842   -0.4663   12.2315 H     470  UNL470      0.1146
   1880 H          12.5461    0.1470   10.7428 H     470  UNL470      0.1146
   1881 N          12.0586   -0.2063   14.0296 N.3   471  UNL471     -0.3437
   1882 H          11.6169   -1.0781   13.7411 H     471  UNL471      0.1146
   1883 H          12.7842   -0.4663   14.6962 H     471  UNL471      0.1146
   1884 H          12.5461    0.1470   13.2075 H     471  UNL471      0.1146
   1885 N          12.0586   -0.2063   16.4944 N.3   472  UNL472     -0.3437
   1886 H          11.6169   -1.0781   16.2059 H     472  UNL472      0.1146
   1887 H          12.7842   -0.4663   17.1610 H     472  UNL472      0.1146
   1888 H          12.5461    0.1470   15.6723 H     472  UNL472      0.1146
   1889 N          12.0586   -0.2063   18.9592 N.3   473  UNL473     -0.3437
   1890 H          11.6169   -1.0781   18.6707 H     473  UNL473      0.1146
   1891 H          12.7842   -0.4663   19.6258 H     473  UNL473      0.1146
   1892 H          12.5461    0.1470   18.1371 H     473  UNL473      0.1146
   1893 N          12.0586   -0.2063   21.4240 N.3   474  UNL474     -0.3437
   1894 H          11.6169   -1.0781   21.1355 H     474  UNL474      0.1146
   1895 H          12.7842   -0.4663   22.0906 H     474  UNL474      0.1146
   1896 H          12.5461    0.1470   20.6019 H     474  UNL474      0.1146
   1897 N          12.0586   -0.2063   23.8887 N.3   475  UNL475     -0.3437
   1898 H          11.6169   -1.0781   23.6002 H     475  UNL475      0.1146
   1899 H          12.7842   -0.4663   24.5553 H     475  UNL475      0.1146
   1900 H          12.5461    0.1470   23.0666 H     475  UNL475      0.1146
   1901 N          12.0586   -0.2063   26.3535 N.3   476  UNL476     -0.3437
   1902 H          11.6169   -1.0781   26.0650 H     476  UNL476      0.1146
   1903 H          12.7842   -0.4663   27.0201 H     476  UNL476      0.1146
   1904 H          12.5461    0.1470   25.5314 H     476  UNL476      0.1146
   1905 N          12.0586   -0.5626   31.3271 N.3   477  UNL477     -0.3437
   1906 H          11.6169   -0.0386   30.5730 H     477  UNL477      0.1146
   1907 H          12.7842   -1.1281   30.8888 H     477  UNL477      0.1146
   1908 H          12.5461    0.1255   31.8992 H     477  UNL477      0.1146
   1909 N          12.0586   -0.2063   33.7478 N.3   478  UNL478     -0.3437
   1910 H          11.6169   -1.0781   33.4593 H     478  UNL478      0.1146
   1911 H          12.7842   -0.4663   34.4144 H     478  UNL478      0.1146
   1912 H          12.5461    0.1470   32.9257 H     478  UNL478      0.1146
   1913 N          12.0586    0.0692   -0.7149 N.3   479  UNL479     -0.3437
   1914 H          11.6169    0.5932   -1.4690 H     479  UNL479      0.1146
   1915 H          12.7842   -0.4963   -1.1532 H     479  UNL479      0.1146
   1916 H          12.5461    0.7573   -0.1428 H     479  UNL479      0.1146
   1917 N          12.0586    0.2033    1.3725 N.3   480  UNL480     -0.3437
   1918 H          11.6169    0.4939    2.2436 H     480  UNL480      0.1146
   1919 H          12.7842    0.8929    1.1818 H     480  UNL480      0.1146
   1920 H          12.5461   -0.6668    1.5814 H     480  UNL480      0.1146
   1921 N          12.0586    2.4254    4.1706 N.3   481  UNL481     -0.3437
   1922 H          11.6169    1.5536    3.8821 H     481  UNL481      0.1146
   1923 H          12.7842    2.1655    4.8372 H     481  UNL481      0.1146
   1924 H          12.5461    2.7788    3.3485 H     481  UNL481      0.1146
   1925 N          12.0586    2.4254    6.6353 N.3   482  UNL482     -0.3437
   1926 H          11.6169    1.5536    6.3468 H     482  UNL482      0.1146
   1927 H          12.7842    2.1655    7.3019 H     482  UNL482      0.1146
   1928 H          12.5461    2.7788    5.8132 H     482  UNL482      0.1146
   1929 N          12.0586    2.4254    9.1001 N.3   483  UNL483     -0.3437
   1930 H          11.6169    1.5536    8.8116 H     483  UNL483      0.1146
   1931 H          12.7842    2.1655    9.7667 H     483  UNL483      0.1146
   1932 H          12.5461    2.7788    8.2780 H     483  UNL483      0.1146
   1933 N          12.0586    2.4254   11.5649 N.3   484  UNL484     -0.3437
   1934 H          11.6169    1.5536   11.2764 H     484  UNL484      0.1146
   1935 H          12.7842    2.1655   12.2315 H     484  UNL484      0.1146
   1936 H          12.5461    2.7788   10.7428 H     484  UNL484      0.1146
   1937 N          12.0586    2.4254   14.0296 N.3   485  UNL485     -0.3437
   1938 H          11.6169    1.5536   13.7411 H     485  UNL485      0.1146
   1939 H          12.7842    2.1655   14.6962 H     485  UNL485      0.1146
   1940 H          12.5461    2.7788   13.2075 H     485  UNL485      0.1146
   1941 N          12.0586    2.4254   16.4944 N.3   486  UNL486     -0.3437
   1942 H          11.6169    1.5536   16.2059 H     486  UNL486      0.1146
   1943 H          12.7842    2.1655   17.1610 H     486  UNL486      0.1146
   1944 H          12.5461    2.7788   15.6723 H     486  UNL486      0.1146
   1945 N          12.0586    2.4254   18.9592 N.3   487  UNL487     -0.3437
   1946 H          11.6169    1.5536   18.6707 H     487  UNL487      0.1146
   1947 H          12.7842    2.1655   19.6258 H     487  UNL487      0.1146
   1948 H          12.5461    2.7788   18.1371 H     487  UNL487      0.1146
   1949 N          12.0586    2.4254   21.4240 N.3   488  UNL488     -0.3437
   1950 H          11.6169    1.5536   21.1355 H     488  UNL488      0.1146
   1951 H          12.7842    2.1655   22.0906 H     488  UNL488      0.1146
   1952 H          12.5461    2.7788   20.6019 H     488  UNL488      0.1146
   1953 N          12.0586    2.4254   23.8887 N.3   489  UNL489     -0.3437
   1954 H          11.6169    1.5536   23.6002 H     489  UNL489      0.1146
   1955 H          12.7842    2.1655   24.5553 H     489  UNL489      0.1146
   1956 H          12.5461    2.7788   23.0666 H     489  UNL489      0.1146
   1957 N          12.0586    2.4254   26.3535 N.3   490  UNL490     -0.3437
   1958 H          11.6169    1.5536   26.0650 H     490  UNL490      0.1146
   1959 H          12.7842    2.1655   27.0201 H     490  UNL490      0.1146
   1960 H          12.5461    2.7788   25.5314 H     490  UNL490      0.1146
   1961 N          12.0586    0.4254   28.8183 N.3   491  UNL491     -0.3437
   1962 H          11.6169   -0.4464   28.5298 H     491  UNL491      0.1146
   1963 H          12.7842    0.1655   29.4849 H     491  UNL491      0.1146
   1964 H          12.5461    0.7788   27.9962 H     491  UNL491      0.1146
   1965 N          12.2652    2.4188   30.9443 N.3   492  UNL492     -0.3437
   1966 H          11.6437    2.7416   31.6845 H     492  UNL492      0.1146
   1967 H          13.1713    2.2664   31.3848 H     492  UNL492      0.1146
   1968 H          11.9255    1.4967   30.6746 H     492  UNL492      0.1146
   1969 N          12.0586    2.4254   33.7478 N.3   493  UNL493     -0.3437
   1970 H          11.6169    1.5536   33.4593 H     493  UNL493      0.1146
   1971 H          12.7842    2.1655   34.4144 H     493  UNL493      0.1146
   1972 H          12.5461    2.7788   32.9257 H     493  UNL493      0.1146
   1973 N          12.0586    0.4254   36.2126 N.3   494  UNL494     -0.3437
   1974 H          11.6169   -0.4464   35.9241 H     494  UNL494      0.1146
   1975 H          12.7842    0.1655   36.8792 H     494  UNL494      0.1146
   1976 H          12.5461    0.7788   35.3905 H     494  UNL494      0.1146
   1977 N          12.0586    4.7010    1.7499 N.3   495  UNL495     -0.3437
   1978 H          11.6169    5.2250    0.9958 H     495  UNL495      0.1146
   1979 H          12.7842    4.1355    1.3116 H     495  UNL495      0.1146
   1980 H          12.5461    5.3891    2.3220 H     495  UNL495      0.1146
   1981 N          12.0586    4.8351    3.8372 N.3   496  UNL496     -0.3437
   1982 H          11.6169    5.1257    4.7083 H     496  UNL496      0.1146
   1983 H          12.7842    5.5247    3.6465 H     496  UNL496      0.1146
   1984 H          12.5461    3.9650    4.0461 H     496  UNL496      0.1146
   1985 N          12.0221    4.7423    6.3818 N.3   497  UNL497     -0.3437
   1986 H          12.1499    4.3591    7.3174 H     497  UNL497      0.1146
   1987 H          11.9270    5.7498    6.5016 H     497  UNL497      0.1146
   1988 H          12.9067    4.5994    5.8966 H     497  UNL497      0.1146
   1989 N          12.0586    5.0572    9.1001 N.3   498  UNL498     -0.3437
   1990 H          11.6169    4.1854    8.8116 H     498  UNL498      0.1146
   1991 H          12.7842    4.7973    9.7667 H     498  UNL498      0.1146
   1992 H          12.5461    5.4106    8.2780 H     498  UNL498      0.1146
   1993 N          12.0586    5.0572   11.5649 N.3   499  UNL499     -0.3437
   1994 H          11.6169    4.1854   11.2764 H     499  UNL499      0.1146
   1995 H          12.7842    4.7973   12.2315 H     499  UNL499      0.1146
   1996 H          12.5461    5.4106   10.7428 H     499  UNL499      0.1146
   1997 N          12.0586    5.0572   14.0296 N.3   500  UNL500     -0.3437
   1998 H          11.6169    4.1854   13.7411 H     500  UNL500      0.1146
   1999 H          12.7842    4.7973   14.6962 H     500  UNL500      0.1146
   2000 H          12.5461    5.4106   13.2075 H     500  UNL500      0.1146
   2001 N          12.0586    5.0572   16.4944 N.3   501  UNL501     -0.3437
   2002 H          11.6169    4.1854   16.2059 H     501  UNL501      0.1146
   2003 H          12.7842    4.7973   17.1610 H     501  UNL501      0.1146
   2004 H          12.5461    5.4106   15.6723 H     501  UNL501      0.1146
   2005 N          12.0586    5.0572   18.9592 N.3   502  UNL502     -0.3437
   2006 H          11.6169    4.1854   18.6707 H     502  UNL502      0.1146
   2007 H          12.7842    4.7973   19.6258 H     502  UNL502      0.1146
   2008 H          12.5461    5.4106   18.1371 H     502  UNL502      0.1146
   2009 N          12.0586    5.0572   21.4240 N.3   503  UNL503     -0.3437
   2010 H          11.6169    4.1854   21.1355 H     503  UNL503      0.1146
   2011 H          12.7842    4.7973   22.0906 H     503  UNL503      0.1146
   2012 H          12.5461    5.4106   20.6019 H     503  UNL503      0.1146
   2013 N          12.0586    5.0572   23.8887 N.3   504  UNL504     -0.3437
   2014 H          11.6169    4.1854   23.6002 H     504  UNL504      0.1146
   2015 H          12.7842    4.7973   24.5553 H     504  UNL504      0.1146
   2016 H          12.5461    5.4106   23.0666 H     504  UNL504      0.1146
   2017 N          12.0586    5.0572   26.3535 N.3   505  UNL505     -0.3437
   2018 H          11.6169    4.1854   26.0650 H     505  UNL505      0.1146
   2019 H          12.7842    4.7973   27.0201 H     505  UNL505      0.1146
   2020 H          12.5461    5.4106   25.5314 H     505  UNL505      0.1146
   2021 N          12.0586    2.8351   28.4849 N.3   506  UNL506     -0.3437
   2022 H          11.6169    3.1257   29.3560 H     506  UNL506      0.1146
   2023 H          12.7842    3.5247   28.2942 H     506  UNL506      0.1146
   2024 H          12.5461    1.9650   28.6938 H     506  UNL506      0.1146
   2025 N          12.0586    4.7010   31.3271 N.3   507  UNL507     -0.3437
   2026 H          11.6169    5.2250   30.5730 H     507  UNL507      0.1146
   2027 H          12.7842    4.1355   30.8888 H     507  UNL507      0.1146
   2028 H          12.5461    5.3891   31.8992 H     507  UNL507      0.1146
   2029 N          12.0586    4.8351   33.4145 N.3   508  UNL508     -0.3437
   2030 H          11.6169    5.1257   34.2856 H     508  UNL508      0.1146
   2031 H          12.7842    5.5247   33.2238 H     508  UNL508      0.1146
   2032 H          12.5461    3.9650   33.6234 H     508  UNL508      0.1146
   2033 N          12.0586    2.7010   36.2567 N.3   509  UNL509     -0.3437
   2034 H          11.6169    3.2250   35.5025 H     509  UNL509      0.1146
   2035 H          12.7842    2.1355   35.8183 H     509  UNL509      0.1146
   2036 H          12.5461    3.3891   36.8287 H     509  UNL509      0.1146
   2037 N          12.0586    5.4669   -1.0923 N.3   510  UNL510     -0.3437
   2038 H          11.6169    5.7575   -0.2212 H     510  UNL510      0.1146
   2039 H          12.7842    6.1565   -1.2830 H     510  UNL510      0.1146
   2040 H          12.5461    4.5968   -0.8834 H     510  UNL510      0.1146
   2041 N          12.0586    7.6890    1.7058 N.3   511  UNL511     -0.3437
   2042 H          11.6169    6.8172    1.4173 H     511  UNL511      0.1146
   2043 H          12.7842    7.4291    2.3724 H     511  UNL511      0.1146
   2044 H          12.5461    8.0424    0.8837 H     511  UNL511      0.1146
   2045 N          12.0221    7.3741    3.9171 N.3   512  UNL512     -0.3437
   2046 H          12.1499    6.9909    4.8526 H     512  UNL512      0.1146
   2047 H          11.9270    8.3816    4.0368 H     512  UNL512      0.1146
   2048 H          12.9067    7.2312    3.4318 H     512  UNL512      0.1146
   2049 N          12.2652    7.6823    6.2966 N.3   513  UNL513     -0.3437
   2050 H          11.6437    8.0052    7.0368 H     513  UNL513      0.1146
   2051 H          13.1713    7.5300    6.7371 H     513  UNL513      0.1146
   2052 H          11.9255    6.7602    6.0269 H     513  UNL513      0.1146
   2053 N          12.0221    7.3741    8.8466 N.3   514  UNL514     -0.3437
   2054 H          12.1499    6.9909    9.7821 H     514  UNL514      0.1146
   2055 H          11.9270    8.3816    8.9663 H     514  UNL514      0.1146
   2056 H          12.9067    7.2312    8.3614 H     514  UNL514      0.1146
   2057 N          12.0586    7.6890   11.5649 N.3   515  UNL515     -0.3437
   2058 H          11.6169    6.8172   11.2764 H     515  UNL515      0.1146
   2059 H          12.7842    7.4291   12.2315 H     515  UNL515      0.1146
   2060 H          12.5461    8.0424   10.7428 H     515  UNL515      0.1146
   2061 N          12.0586    7.6890   14.0296 N.3   516  UNL516     -0.3437
   2062 H          11.6169    6.8172   13.7411 H     516  UNL516      0.1146
   2063 H          12.7842    7.4291   14.6962 H     516  UNL516      0.1146
   2064 H          12.5461    8.0424   13.2075 H     516  UNL516      0.1146
   2065 N          12.0586    7.6890   16.4944 N.3   517  UNL517     -0.3437
   2066 H          11.6169    6.8172   16.2059 H     517  UNL517      0.1146
   2067 H          12.7842    7.4291   17.1610 H     517  UNL517      0.1146
   2068 H          12.5461    8.0424   15.6723 H     517  UNL517      0.1146
   2069 N          12.0586    7.6890   18.9592 N.3   518  UNL518     -0.3437
   2070 H          11.6169    6.8172   18.6707 H     518  UNL518      0.1146
   2071 H          12.7842    7.4291   19.6258 H     518  UNL518      0.1146
   2072 H          12.5461    8.0424   18.1371 H     518  UNL518      0.1146
   2073 N          12.0586    7.6890   21.4240 N.3   519  UNL519     -0.3437
   2074 H          11.6169    6.8172   21.1355 H     519  UNL519      0.1146
   2075 H          12.7842    7.4291   22.0906 H     519  UNL519      0.1146
   2076 H          12.5461    8.0424   20.6019 H     519  UNL519      0.1146
   2077 N          12.0586    7.6890   23.8887 N.3   520  UNL520     -0.3437
   2078 H          11.6169    6.8172   23.6002 H     520  UNL520      0.1146
   2079 H          12.7842    7.4291   24.5553 H     520  UNL520      0.1146
   2080 H          12.5461    8.0424   23.0666 H     520  UNL520      0.1146
   2081 N          12.0586    7.6890   26.3535 N.3   521  UNL521     -0.3437
   2082 H          11.6169    6.8172   26.0650 H     521  UNL521      0.1146
   2083 H          12.7842    7.4291   27.0201 H     521  UNL521      0.1146
   2084 H          12.5461    8.0424   25.5314 H     521  UNL521      0.1146
   2085 N          12.0586    5.6890   28.8183 N.3   522  UNL522     -0.3437
   2086 H          11.6169    4.8172   28.5298 H     522  UNL522      0.1146
   2087 H          12.7842    5.4291   29.4849 H     522  UNL522      0.1146
   2088 H          12.5461    6.0424   27.9962 H     522  UNL522      0.1146
   2089 N          12.2652    7.6823   30.9443 N.3   523  UNL523     -0.3437
   2090 H          11.6437    8.0052   31.6845 H     523  UNL523      0.1146
   2091 H          13.1713    7.5300   31.3848 H     523  UNL523      0.1146
   2092 H          11.9255    6.7602   30.6746 H     523  UNL523      0.1146
   2093 N          12.0221    7.3741   33.4943 N.3   524  UNL524     -0.3437
   2094 H          12.1499    6.9909   34.4298 H     524  UNL524      0.1146
   2095 H          11.9270    8.3816   33.6140 H     524  UNL524      0.1146
   2096 H          12.9067    7.2312   33.0091 H     524  UNL524      0.1146
   2097 N          11.9748    5.4839   36.9980 N.3   525  UNL525     -0.3437
   2098 H          12.1125    4.8904   37.8147 H     525  UNL525      0.1146
   2099 H          12.2539    6.4219   37.2821 H     525  UNL525      0.1146
   2100 H          12.6645    5.1816   36.3115 H     525  UNL525      0.1146
   2101 N          11.9748   10.1157    1.4912 N.3   526  UNL526     -0.3437
   2102 H          12.1125    9.5222    2.3079 H     526  UNL526      0.1146
   2103 H          12.2539   11.0537    1.7753 H     526  UNL526      0.1146
   2104 H          12.6645    9.8134    0.8047 H     526  UNL526      0.1146
   2105 N          12.0586   10.0987    3.8372 N.3   527  UNL527     -0.3437
   2106 H          11.6169   10.3893    4.7083 H     527  UNL527      0.1146
   2107 H          12.7842   10.7883    3.6465 H     527  UNL527      0.1146
   2108 H          12.5461    9.2286    4.0461 H     527  UNL527      0.1146
   2109 N          12.0586   10.0987    6.3020 N.3   528  UNL528     -0.3437
   2110 H          11.6169   10.3893    7.1731 H     528  UNL528      0.1146
   2111 H          12.7842   10.7883    6.1113 H     528  UNL528      0.1146
   2112 H          12.5461    9.2286    6.5109 H     528  UNL528      0.1146
   2113 N          12.0586   10.0987    8.7668 N.3   529  UNL529     -0.3437
   2114 H          11.6169   10.3893    9.6379 H     529  UNL529      0.1146
   2115 H          12.7842   10.7883    8.5761 H     529  UNL529      0.1146
   2116 H          12.5461    9.2286    8.9757 H     529  UNL529      0.1146
   2117 N          12.0586   10.0987   11.2316 N.3   530  UNL530     -0.3437
   2118 H          11.6169   10.3893   12.1027 H     530  UNL530      0.1146
   2119 H          12.7842   10.7883   11.0409 H     530  UNL530      0.1146
   2120 H          12.5461    9.2286   11.4405 H     530  UNL530      0.1146
   2121 N          12.0586   10.0987   13.6963 N.3   531  UNL531     -0.3437
   2122 H          11.6169   10.3893   14.5674 H     531  UNL531      0.1146
   2123 H          12.7842   10.7883   13.5056 H     531  UNL531      0.1146
   2124 H          12.5461    9.2286   13.9052 H     531  UNL531      0.1146
   2125 N          12.0586   10.0987   16.1611 N.3   532  UNL532     -0.3437
   2126 H          11.6169   10.3893   17.0322 H     532  UNL532      0.1146
   2127 H          12.7842   10.7883   15.9704 H     532  UNL532      0.1146
   2128 H          12.5461    9.2286   16.3700 H     532  UNL532      0.1146
   2129 N          12.0586   10.0987   18.6259 N.3   533  UNL533     -0.3437
   2130 H          11.6169   10.3893   19.4970 H     533  UNL533      0.1146
   2131 H          12.7842   10.7883   18.4352 H     533  UNL533      0.1146
   2132 H          12.5461    9.2286   18.8348 H     533  UNL533      0.1146
   2133 N          12.0586   10.0987   21.0906 N.3   534  UNL534     -0.3437
   2134 H          11.6169   10.3893   21.9617 H     534  UNL534      0.1146
   2135 H          12.7842   10.7883   20.8999 H     534  UNL534      0.1146
   2136 H          12.5461    9.2286   21.2995 H     534  UNL534      0.1146
   2137 N          12.0586   10.0987   23.5554 N.3   535  UNL535     -0.3437
   2138 H          11.6169   10.3893   24.4265 H     535  UNL535      0.1146
   2139 H          12.7842   10.7883   23.3647 H     535  UNL535      0.1146
   2140 H          12.5461    9.2286   23.7643 H     535  UNL535      0.1146
   2141 N          12.0586   10.0987   26.0202 N.3   536  UNL536     -0.3437
   2142 H          11.6169   10.3893   26.8913 H     536  UNL536      0.1146
   2143 H          12.7842   10.7883   25.8295 H     536  UNL536      0.1146
   2144 H          12.5461    9.2286   26.2291 H     536  UNL536      0.1146
   2145 N          12.0586    7.9646   28.8624 N.3   537  UNL537     -0.3437
   2146 H          11.6169    8.4886   28.1082 H     537  UNL537      0.1146
   2147 H          12.7842    7.3991   28.4240 H     537  UNL537      0.1146
   2148 H          12.5461    8.6527   29.4344 H     537  UNL537      0.1146
   2149 N          12.1887   10.0987   31.4596 N.3   538  UNL538     -0.3437
   2150 H          13.1509   10.3893   31.2921 H     538  UNL538      0.1146
   2151 H          11.6017   10.7883   30.9924 H     538  UNL538      0.1146
   2152 H          12.0643    9.2286   30.9440 H     538  UNL538      0.1146
   2153 N          12.0586   10.0987   33.4145 N.3   539  UNL539     -0.3437
   2154 H          11.6169   10.3893   34.2856 H     539  UNL539      0.1146
   2155 H          12.7842   10.7883   33.2238 H     539  UNL539      0.1146
   2156 H          12.5461    9.2286   33.6234 H     539  UNL539      0.1146
   2157 N          12.0031    8.2849   36.1254 N.3   540  UNL540     -0.3437
   2158 H          12.4192    8.0663   37.0295 H     540  UNL540      0.1146
   2159 H          12.7271    8.7635   35.5913 H     540  UNL540      0.1146
   2160 H          11.8562    7.3903   35.6601 H     540  UNL540      0.1146
   2161 N          12.0586   12.7305    1.3725 N.3   541  UNL541     -0.3437
   2162 H          11.6169   13.0211    2.2436 H     541  UNL541      0.1146
   2163 H          12.7842   13.4201    1.1818 H     541  UNL541      0.1146
   2164 H          12.5461   11.8604    1.5814 H     541  UNL541      0.1146
   2165 N          12.0586   12.5964    4.2147 N.3   542  UNL542     -0.3437
   2166 H          11.6169   13.1203    3.4605 H     542  UNL542      0.1146
   2167 H          12.7842   12.0309    3.7763 H     542  UNL542      0.1146
   2168 H          12.5461   13.2845    4.7867 H     542  UNL542      0.1146
   2169 N          12.0586   12.9526    6.6353 N.3   543  UNL543     -0.3437
   2170 H          11.6169   12.0808    6.3468 H     543  UNL543      0.1146
   2171 H          12.7842   12.6927    7.3019 H     543  UNL543      0.1146
   2172 H          12.5461   13.3060    5.8132 H     543  UNL543      0.1146
   2173 N          12.0586   12.9526    9.1001 N.3   544  UNL544     -0.3437
   2174 H          11.6169   12.0808    8.8116 H     544  UNL544      0.1146
   2175 H          12.7842   12.6927    9.7667 H     544  UNL544      0.1146
   2176 H          12.5461   13.3060    8.2780 H     544  UNL544      0.1146
   2177 N          12.0586   12.9526   11.5649 N.3   545  UNL545     -0.3437
   2178 H          11.6169   12.0808   11.2764 H     545  UNL545      0.1146
   2179 H          12.7842   12.6927   12.2315 H     545  UNL545      0.1146
   2180 H          12.5461   13.3060   10.7428 H     545  UNL545      0.1146
   2181 N          12.0586   12.9526   14.0296 N.3   546  UNL546     -0.3437
   2182 H          11.6169   12.0808   13.7411 H     546  UNL546      0.1146
   2183 H          12.7842   12.6927   14.6962 H     546  UNL546      0.1146
   2184 H          12.5461   13.3060   13.2075 H     546  UNL546      0.1146
   2185 N          12.0586   12.9526   16.4944 N.3   547  UNL547     -0.3437
   2186 H          11.6169   12.0808   16.2059 H     547  UNL547      0.1146
   2187 H          12.7842   12.6927   17.1610 H     547  UNL547      0.1146
   2188 H          12.5461   13.3060   15.6723 H     547  UNL547      0.1146
   2189 N          12.0586   12.9526   18.9592 N.3   548  UNL548     -0.3437
   2190 H          11.6169   12.0808   18.6707 H     548  UNL548      0.1146
   2191 H          12.7842   12.6927   19.6258 H     548  UNL548      0.1146
   2192 H          12.5461   13.3060   18.1371 H     548  UNL548      0.1146
   2193 N          12.0586   12.9526   21.4240 N.3   549  UNL549     -0.3437
   2194 H          11.6169   12.0808   21.1355 H     549  UNL549      0.1146
   2195 H          12.7842   12.6927   22.0906 H     549  UNL549      0.1146
   2196 H          12.5461   13.3060   20.6019 H     549  UNL549      0.1146
   2197 N          12.0586   12.9526   23.8887 N.3   550  UNL550     -0.3437
   2198 H          11.6169   12.0808   23.6002 H     550  UNL550      0.1146
   2199 H          12.7842   12.6927   24.5553 H     550  UNL550      0.1146
   2200 H          12.5461   13.3060   23.0666 H     550  UNL550      0.1146
   2201 N          12.0586   12.9526   26.3535 N.3   551  UNL551     -0.3437
   2202 H          11.6169   12.0808   26.0650 H     551  UNL551      0.1146
   2203 H          12.7842   12.6927   27.0201 H     551  UNL551      0.1146
   2204 H          12.5461   13.3060   25.5314 H     551  UNL551      0.1146
   2205 N          12.0031   10.9167   28.7311 N.3   552  UNL552     -0.3437
   2206 H          12.4192   10.6980   29.6352 H     552  UNL552      0.1146
   2207 H          12.7271   11.3953   28.1970 H     552  UNL552      0.1146
   2208 H          11.8562   10.0220   28.2658 H     552  UNL552      0.1146
   2209 N          12.0586   12.7305   30.9497 N.3   553  UNL553     -0.3437
   2210 H          11.6169   13.0211   31.8208 H     553  UNL553      0.1146
   2211 H          12.7842   13.4201   30.7590 H     553  UNL553      0.1146
   2212 H          12.5461   11.8604   31.1586 H     553  UNL553      0.1146
   2213 N          12.0586   12.5964   33.7919 N.3   554  UNL554     -0.3437
   2214 H          11.6169   13.1203   33.0378 H     554  UNL554      0.1146
   2215 H          12.7842   12.0309   33.3536 H     554  UNL554      0.1146
   2216 H          12.5461   13.2845   34.3640 H     554  UNL554      0.1146
   2217 N          12.0586   12.9526   36.2126 N.3   555  UNL555     -0.3437
   2218 H          11.6169   12.0808   35.9241 H     555  UNL555      0.1146
   2219 H          12.7842   12.6927   36.8792 H     555  UNL555      0.1146
   2220 H          12.5461   13.3060   35.3905 H     555  UNL555      0.1146
   2221 N          12.0586   15.3623    8.7668 N.3   556  UNL556     -0.3437
   2222 H          11.6169   15.6529    9.6379 H     556  UNL556      0.1146
   2223 H          12.7842   16.0519    8.5761 H     556  UNL556      0.1146
   2224 H          12.5461   14.4922    8.9757 H     556  UNL556      0.1146
   2225 N          12.0586   15.3623   11.2316 N.3   557  UNL557     -0.3437
   2226 H          11.6169   15.6529   12.1027 H     557  UNL557      0.1146
   2227 H          12.7842   16.0519   11.0409 H     557  UNL557      0.1146
   2228 H          12.5461   14.4922   11.4405 H     557  UNL557      0.1146
   2229 N          12.0586   15.3623   18.6259 N.3   558  UNL558     -0.3437
   2230 H          11.6169   15.6529   19.4970 H     558  UNL558      0.1146
   2231 H          12.7842   16.0519   18.4352 H     558  UNL558      0.1146
   2232 H          12.5461   14.4922   18.8348 H     558  UNL558      0.1146
   2233 N          12.1887   15.3623   31.4596 N.3   559  UNL559     -0.3437
   2234 H          13.1509   15.6529   31.2921 H     559  UNL559      0.1146
   2235 H          11.6017   16.0519   30.9924 H     559  UNL559      0.1146
   2236 H          12.0643   14.4922   30.9440 H     559  UNL559      0.1146
   2237 N          12.0586   15.3623   35.8793 N.3   560  UNL560     -0.3437
   2238 H          11.6169   15.6529   36.7504 H     560  UNL560      0.1146
   2239 H          12.7842   16.0519   35.6886 H     560  UNL560      0.1146
   2240 H          12.5461   14.4922   36.0882 H     560  UNL560      0.1146
   2241 N          14.4215   -0.2063   -0.2942 N.3   561  UNL561     -0.3437
   2242 H          13.9798   -1.0781   -0.5827 H     561  UNL561      0.1146
   2243 H          15.1471   -0.4663    0.3724 H     561  UNL561      0.1146
   2244 H          14.9090    0.1470   -1.1163 H     561  UNL561      0.1146
   2245 N          14.4215   -0.5626    4.2147 N.3   562  UNL562     -0.3437
   2246 H          13.9798   -0.0386    3.4605 H     562  UNL562      0.1146
   2247 H          15.1471   -1.1281    3.7763 H     562  UNL562      0.1146
   2248 H          14.9090    0.1255    4.7867 H     562  UNL562      0.1146
   2249 N          14.4215   -0.2063    6.6353 N.3   563  UNL563     -0.3437
   2250 H          13.9798   -1.0781    6.3468 H     563  UNL563      0.1146
   2251 H          15.1471   -0.4663    7.3019 H     563  UNL563      0.1146
   2252 H          14.9090    0.1470    5.8132 H     563  UNL563      0.1146
   2253 N          14.4215   -0.2063    9.1001 N.3   564  UNL564     -0.3437
   2254 H          13.9798   -1.0781    8.8116 H     564  UNL564      0.1146
   2255 H          15.1471   -0.4663    9.7667 H     564  UNL564      0.1146
   2256 H          14.9090    0.1470    8.2780 H     564  UNL564      0.1146
   2257 N          14.4215   -0.2063   11.5649 N.3   565  UNL565     -0.3437
   2258 H          13.9798   -1.0781   11.2764 H     565  UNL565      0.1146
   2259 H          15.1471   -0.4663   12.2315 H     565  UNL565      0.1146
   2260 H          14.9090    0.1470   10.7428 H     565  UNL565      0.1146
   2261 N          14.4215   -0.2063   14.0296 N.3   566  UNL566     -0.3437
   2262 H          13.9798   -1.0781   13.7411 H     566  UNL566      0.1146
   2263 H          15.1471   -0.4663   14.6962 H     566  UNL566      0.1146
   2264 H          14.9090    0.1470   13.2075 H     566  UNL566      0.1146
   2265 N          14.4215   -0.2063   16.4944 N.3   567  UNL567     -0.3437
   2266 H          13.9798   -1.0781   16.2059 H     567  UNL567      0.1146
   2267 H          15.1471   -0.4663   17.1610 H     567  UNL567      0.1146
   2268 H          14.9090    0.1470   15.6723 H     567  UNL567      0.1146
   2269 N          14.4215   -0.2063   18.9592 N.3   568  UNL568     -0.3437
   2270 H          13.9798   -1.0781   18.6707 H     568  UNL568      0.1146
   2271 H          15.1471   -0.4663   19.6258 H     568  UNL568      0.1146
   2272 H          14.9090    0.1470   18.1371 H     568  UNL568      0.1146
   2273 N          14.4215   -0.2063   21.4240 N.3   569  UNL569     -0.3437
   2274 H          13.9798   -1.0781   21.1355 H     569  UNL569      0.1146
   2275 H          15.1471   -0.4663   22.0906 H     569  UNL569      0.1146
   2276 H          14.9090    0.1470   20.6019 H     569  UNL569      0.1146
   2277 N          14.4215   -0.2063   23.8887 N.3   570  UNL570     -0.3437
   2278 H          13.9798   -1.0781   23.6002 H     570  UNL570      0.1146
   2279 H          15.1471   -0.4663   24.5553 H     570  UNL570      0.1146
   2280 H          14.9090    0.1470   23.0666 H     570  UNL570      0.1146
   2281 N          14.4215   -0.2063   26.3535 N.3   571  UNL571     -0.3437
   2282 H          13.9798   -1.0781   26.0650 H     571  UNL571      0.1146
   2283 H          15.1471   -0.4663   27.0201 H     571  UNL571      0.1146
   2284 H          14.9090    0.1470   25.5314 H     571  UNL571      0.1146
   2285 N          14.3850   -0.5213   28.5648 N.3   572  UNL572     -0.3437
   2286 H          14.5128   -0.9045   29.5003 H     572  UNL572      0.1146
   2287 H          14.2899    0.4862   28.6845 H     572  UNL572      0.1146
   2288 H          15.2696   -0.6641   28.0795 H     572  UNL572      0.1146
   2289 N          14.6281   -0.2130   30.9443 N.3   573  UNL573     -0.3437
   2290 H          14.0066    0.1098   31.6845 H     573  UNL573      0.1146
   2291 H          15.5342   -0.3654   31.3848 H     573  UNL573      0.1146
   2292 H          14.2884   -1.1351   30.6746 H     573  UNL573      0.1146
   2293 N          14.4215   -0.2063   33.7478 N.3   574  UNL574     -0.3437
   2294 H          13.9798   -1.0781   33.4593 H     574  UNL574      0.1146
   2295 H          15.1471   -0.4663   34.4144 H     574  UNL574      0.1146
   2296 H          14.9090    0.1470   32.9257 H     574  UNL574      0.1146
   2297 N          14.4215    2.4254    1.7058 N.3   575  UNL575     -0.3437
   2298 H          13.9798    1.5536    1.4173 H     575  UNL575      0.1146
   2299 H          15.1471    2.1655    2.3724 H     575  UNL575      0.1146
   2300 H          14.9090    2.7788    0.8837 H     575  UNL575      0.1146
   2301 N          14.4215    2.4254    4.1706 N.3   576  UNL576     -0.3437
   2302 H          13.9798    1.5536    3.8821 H     576  UNL576      0.1146
   2303 H          15.1471    2.1655    4.8372 H     576  UNL576      0.1146
   2304 H          14.9090    2.7788    3.3485 H     576  UNL576      0.1146
   2305 N          14.4215    2.4254    6.6353 N.3   577  UNL577     -0.3437
   2306 H          13.9798    1.5536    6.3468 H     577  UNL577      0.1146
   2307 H          15.1471    2.1655    7.3019 H     577  UNL577      0.1146
   2308 H          14.9090    2.7788    5.8132 H     577  UNL577      0.1146
   2309 N          14.4215    2.4254    9.1001 N.3   578  UNL578     -0.3437
   2310 H          13.9798    1.5536    8.8116 H     578  UNL578      0.1146
   2311 H          15.1471    2.1655    9.7667 H     578  UNL578      0.1146
   2312 H          14.9090    2.7788    8.2780 H     578  UNL578      0.1146
   2313 N          14.4215    2.4254   11.5649 N.3   579  UNL579     -0.3437
   2314 H          13.9798    1.5536   11.2764 H     579  UNL579      0.1146
   2315 H          15.1471    2.1655   12.2315 H     579  UNL579      0.1146
   2316 H          14.9090    2.7788   10.7428 H     579  UNL579      0.1146
   2317 N          14.4215    2.4254   14.0296 N.3   580  UNL580     -0.3437
   2318 H          13.9798    1.5536   13.7411 H     580  UNL580      0.1146
   2319 H          15.1471    2.1655   14.6962 H     580  UNL580      0.1146
   2320 H          14.9090    2.7788   13.2075 H     580  UNL580      0.1146
   2321 N          14.4215    2.4254   16.4944 N.3   581  UNL581     -0.3437
   2322 H          13.9798    1.5536   16.2059 H     581  UNL581      0.1146
   2323 H          15.1471    2.1655   17.1610 H     581  UNL581      0.1146
   2324 H          14.9090    2.7788   15.6723 H     581  UNL581      0.1146
   2325 N          14.4215    2.4254   18.9592 N.3   582  UNL582     -0.3437
   2326 H          13.9798    1.5536   18.6707 H     582  UNL582      0.1146
   2327 H          15.1471    2.1655   19.6258 H     582  UNL582      0.1146
   2328 H          14.9090    2.7788   18.1371 H     582  UNL582      0.1146
   2329 N          14.4215    2.4254   21.4240 N.3   583  UNL583     -0.3437
   2330 H          13.9798    1.5536   21.1355 H     583  UNL583      0.1146
   2331 H          15.1471    2.1655   22.0906 H     583  UNL583      0.1146
   2332 H          14.9090    2.7788   20.6019 H     583  UNL583      0.1146
   2333 N          14.4215    2.4254   23.8887 N.3   584  UNL584     -0.3437
   2334 H          13.9798    1.5536   23.6002 H     584  UNL584      0.1146
   2335 H          15.1471    2.1655   24.5553 H     584  UNL584      0.1146
   2336 H          14.9090    2.7788   23.0666 H     584  UNL584      0.1146
   2337 N          14.4215    2.4254   26.3535 N.3   585  UNL585     -0.3437
   2338 H          13.9798    1.5536   26.0650 H     585  UNL585      0.1146
   2339 H          15.1471    2.1655   27.0201 H     585  UNL585      0.1146
   2340 H          14.9090    2.7788   25.5314 H     585  UNL585      0.1146
   2341 N          14.4215    2.4254   28.8183 N.3   586  UNL586     -0.3437
   2342 H          13.9798    1.5536   28.5298 H     586  UNL586      0.1146
   2343 H          15.1471    2.1655   29.4849 H     586  UNL586      0.1146
   2344 H          14.9090    2.7788   27.9962 H     586  UNL586      0.1146
   2345 N          14.4215    2.2033   30.9497 N.3   587  UNL587     -0.3437
   2346 H          13.9798    2.4939   31.8208 H     587  UNL587      0.1146
   2347 H          15.1471    2.8929   30.7590 H     587  UNL587      0.1146
   2348 H          14.9090    1.3332   31.1586 H     587  UNL587      0.1146
   2349 N          14.4215    2.4254   33.7478 N.3   588  UNL588     -0.3437
   2350 H          13.9798    1.5536   33.4593 H     588  UNL588      0.1146
   2351 H          15.1471    2.1655   34.4144 H     588  UNL588      0.1146
   2352 H          14.9090    2.7788   32.9257 H     588  UNL588      0.1146
   2353 N          14.4215    0.4254   36.2126 N.3   589  UNL589     -0.3437
   2354 H          13.9798   -0.4464   35.9241 H     589  UNL589      0.1146
   2355 H          15.1471    0.1655   36.8792 H     589  UNL589      0.1146
   2356 H          14.9090    0.7788   35.3905 H     589  UNL589      0.1146
   2357 N          14.4215    5.0572   -0.2942 N.3   590  UNL590     -0.3437
   2358 H          13.9798    4.1854   -0.5827 H     590  UNL590      0.1146
   2359 H          15.1471    4.7973    0.3724 H     590  UNL590      0.1146
   2360 H          14.9090    5.4106   -1.1163 H     590  UNL590      0.1146
   2361 N          14.6281    5.0505    3.8318 N.3   591  UNL591     -0.3437
   2362 H          14.0066    5.3734    4.5720 H     591  UNL591      0.1146
   2363 H          15.5342    4.8982    4.2724 H     591  UNL591      0.1146
   2364 H          14.2884    4.1285    3.5621 H     591  UNL591      0.1146
   2365 N          14.4215    4.8351    6.3020 N.3   592  UNL592     -0.3437
   2366 H          13.9798    5.1257    7.1731 H     592  UNL592      0.1146
   2367 H          15.1471    5.5247    6.1113 H     592  UNL592      0.1146
   2368 H          14.9090    3.9650    6.5109 H     592  UNL592      0.1146
   2369 N          14.4215    5.0572    9.1001 N.3   593  UNL593     -0.3437
   2370 H          13.9798    4.1854    8.8116 H     593  UNL593      0.1146
   2371 H          15.1471    4.7973    9.7667 H     593  UNL593      0.1146
   2372 H          14.9090    5.4106    8.2780 H     593  UNL593      0.1146
   2373 N          14.4215    5.0572   11.5649 N.3   594  UNL594     -0.3437
   2374 H          13.9798    4.1854   11.2764 H     594  UNL594      0.1146
   2375 H          15.1471    4.7973   12.2315 H     594  UNL594      0.1146
   2376 H          14.9090    5.4106   10.7428 H     594  UNL594      0.1146
   2377 N          14.4215    5.0572   14.0296 N.3   595  UNL595     -0.3437
   2378 H          13.9798    4.1854   13.7411 H     595  UNL595      0.1146
   2379 H          15.1471    4.7973   14.6962 H     595  UNL595      0.1146
   2380 H          14.9090    5.4106   13.2075 H     595  UNL595      0.1146
   2381 N          14.4215    5.0572   16.4944 N.3   596  UNL596     -0.3437
   2382 H          13.9798    4.1854   16.2059 H     596  UNL596      0.1146
   2383 H          15.1471    4.7973   17.1610 H     596  UNL596      0.1146
   2384 H          14.9090    5.4106   15.6723 H     596  UNL596      0.1146
   2385 N          14.4215    5.0572   18.9592 N.3   597  UNL597     -0.3437
   2386 H          13.9798    4.1854   18.6707 H     597  UNL597      0.1146
   2387 H          15.1471    4.7973   19.6258 H     597  UNL597      0.1146
   2388 H          14.9090    5.4106   18.1371 H     597  UNL597      0.1146
   2389 N          14.4215    5.0572   21.4240 N.3   598  UNL598     -0.3437
   2390 H          13.9798    4.1854   21.1355 H     598  UNL598      0.1146
   2391 H          15.1471    4.7973   22.0906 H     598  UNL598      0.1146
   2392 H          14.9090    5.4106   20.6019 H     598  UNL598      0.1146
   2393 N          14.4215    5.0572   23.8887 N.3   599  UNL599     -0.3437
   2394 H          13.9798    4.1854   23.6002 H     599  UNL599      0.1146
   2395 H          15.1471    4.7973   24.5553 H     599  UNL599      0.1146
   2396 H          14.9090    5.4106   23.0666 H     599  UNL599      0.1146
   2397 N          14.4215    5.0572   26.3535 N.3   600  UNL600     -0.3437
   2398 H          13.9798    4.1854   26.0650 H     600  UNL600      0.1146
   2399 H          15.1471    4.7973   27.0201 H     600  UNL600      0.1146
   2400 H          14.9090    5.4106   25.5314 H     600  UNL600      0.1146
   2401 N          14.4215    5.0572   28.8183 N.3   601  UNL601     -0.3437
   2402 H          13.9798    4.1854   28.5298 H     601  UNL601      0.1146
   2403 H          15.1471    4.7973   29.4849 H     601  UNL601      0.1146
   2404 H          14.9090    5.4106   27.9962 H     601  UNL601      0.1146
   2405 N          14.4215    5.0572   31.2830 N.3   602  UNL602     -0.3437
   2406 H          13.9798    4.1854   30.9945 H     602  UNL602      0.1146
   2407 H          15.1471    4.7973   31.9496 H     602  UNL602      0.1146
   2408 H          14.9090    5.4106   30.4609 H     602  UNL602      0.1146
   2409 N          14.4215    5.0572   33.7478 N.3   603  UNL603     -0.3437
   2410 H          13.9798    4.1854   33.4593 H     603  UNL603      0.1146
   2411 H          15.1471    4.7973   34.4144 H     603  UNL603      0.1146
   2412 H          14.9090    5.4106   32.9257 H     603  UNL603      0.1146
   2413 N          14.5516    2.8351   37.3891 N.3   604  UNL604     -0.3437
   2414 H          15.5139    3.1257   37.2217 H     604  UNL604      0.1146
   2415 H          13.9646    3.5247   36.9219 H     604  UNL604      0.1146
   2416 H          14.4272    1.9650   36.8736 H     604  UNL604      0.1146
   2417 N          14.4215    7.6890    1.7058 N.3   605  UNL605     -0.3437
   2418 H          13.9798    6.8172    1.4173 H     605  UNL605      0.1146
   2419 H          15.1471    7.4291    2.3724 H     605  UNL605      0.1146
   2420 H          14.9090    8.0424    0.8837 H     605  UNL605      0.1146
   2421 N          14.7518    7.3564    3.8372 N.3   606  UNL606     -0.3437
   2422 H          14.7833    6.8286    4.7083 H     606  UNL606      0.1146
   2423 H          13.7651    7.5250    3.6465 H     606  UNL606      0.1146
   2424 H          15.1571    8.2677    4.0461 H     606  UNL606      0.1146
   2425 N          14.6281    7.6823    6.2966 N.3   607  UNL607     -0.3437
   2426 H          14.0066    8.0052    7.0368 H     607  UNL607      0.1146
   2427 H          15.5342    7.5300    6.7371 H     607  UNL607      0.1146
   2428 H          14.2884    6.7602    6.0269 H     607  UNL607      0.1146
   2429 N          14.7518    7.3564    8.7668 N.3   608  UNL608     -0.3437
   2430 H          14.7833    6.8286    9.6379 H     608  UNL608      0.1146
   2431 H          13.7651    7.5250    8.5761 H     608  UNL608      0.1146
   2432 H          15.1571    8.2677    8.9757 H     608  UNL608      0.1146
   2433 N          14.4215    7.6890   11.5649 N.3   609  UNL609     -0.3437
   2434 H          13.9798    6.8172   11.2764 H     609  UNL609      0.1146
   2435 H          15.1471    7.4291   12.2315 H     609  UNL609      0.1146
   2436 H          14.9090    8.0424   10.7428 H     609  UNL609      0.1146
   2437 N          14.4215    7.6890   14.0296 N.3   610  UNL610     -0.3437
   2438 H          13.9798    6.8172   13.7411 H     610  UNL610      0.1146
   2439 H          15.1471    7.4291   14.6962 H     610  UNL610      0.1146
   2440 H          14.9090    8.0424   13.2075 H     610  UNL610      0.1146
   2441 N          14.4215    7.6890   16.4944 N.3   611  UNL611     -0.3437
   2442 H          13.9798    6.8172   16.2059 H     611  UNL611      0.1146
   2443 H          15.1471    7.4291   17.1610 H     611  UNL611      0.1146
   2444 H          14.9090    8.0424   15.6723 H     611  UNL611      0.1146
   2445 N          14.4215    7.6890   18.9592 N.3   612  UNL612     -0.3437
   2446 H          13.9798    6.8172   18.6707 H     612  UNL612      0.1146
   2447 H          15.1471    7.4291   19.6258 H     612  UNL612      0.1146
   2448 H          14.9090    8.0424   18.1371 H     612  UNL612      0.1146
   2449 N          14.4215    7.6890   21.4240 N.3   613  UNL613     -0.3437
   2450 H          13.9798    6.8172   21.1355 H     613  UNL613      0.1146
   2451 H          15.1471    7.4291   22.0906 H     613  UNL613      0.1146
   2452 H          14.9090    8.0424   20.6019 H     613  UNL613      0.1146
   2453 N          14.4215    7.6890   23.8887 N.3   614  UNL614     -0.3437
   2454 H          13.9798    6.8172   23.6002 H     614  UNL614      0.1146
   2455 H          15.1471    7.4291   24.5553 H     614  UNL614      0.1146
   2456 H          14.9090    8.0424   23.0666 H     614  UNL614      0.1146
   2457 N          14.4215    7.6890   26.3535 N.3   615  UNL615     -0.3437
   2458 H          13.9798    6.8172   26.0650 H     615  UNL615      0.1146
   2459 H          15.1471    7.4291   27.0201 H     615  UNL615      0.1146
   2460 H          14.9090    8.0424   25.5314 H     615  UNL615      0.1146
   2461 N          14.4215    7.6890   28.8183 N.3   616  UNL616     -0.3437
   2462 H          13.9798    6.8172   28.5298 H     616  UNL616      0.1146
   2463 H          15.1471    7.4291   29.4849 H     616  UNL616      0.1146
   2464 H          14.9090    8.0424   27.9962 H     616  UNL616      0.1146
   2465 N          14.4215    7.4669   30.9497 N.3   617  UNL617     -0.3437
   2466 H          13.9798    7.7575   31.8208 H     617  UNL617      0.1146
   2467 H          15.1471    8.1565   30.7590 H     617  UNL617      0.1146
   2468 H          14.9090    6.5968   31.1586 H     617  UNL617      0.1146
   2469 N          14.4215    7.3328   33.7919 N.3   618  UNL618     -0.3437
   2470 H          13.9798    7.8568   33.0378 H     618  UNL618      0.1146
   2471 H          15.1471    6.7673   33.3536 H     618  UNL618      0.1146
   2472 H          14.9090    8.0209   34.3640 H     618  UNL618      0.1146
   2473 N          14.4215    5.6890   36.2126 N.3   619  UNL619     -0.3437
   2474 H          13.9798    4.8172   35.9241 H     619  UNL619      0.1146
   2475 H          15.1471    5.4291   36.8792 H     619  UNL619      0.1146
   2476 H          14.9090    6.0424   35.3905 H     619  UNL619      0.1146
   2477 N          14.4215   10.3208    1.7058 N.3   620  UNL620     -0.3437
   2478 H          13.9798    9.4490    1.4173 H     620  UNL620      0.1146
   2479 H          15.1471   10.0609    2.3724 H     620  UNL620      0.1146
   2480 H          14.9090   10.6742    0.8837 H     620  UNL620      0.1146
   2481 N          14.4215   10.3208    4.1706 N.3   621  UNL621     -0.3437
   2482 H          13.9798    9.4490    3.8821 H     621  UNL621      0.1146
   2483 H          15.1471   10.0609    4.8372 H     621  UNL621      0.1146
   2484 H          14.9090   10.6742    3.3485 H     621  UNL621      0.1146
   2485 N          14.4215   10.0987    6.3020 N.3   622  UNL622     -0.3437
   2486 H          13.9798   10.3893    7.1731 H     622  UNL622      0.1146
   2487 H          15.1471   10.7883    6.1113 H     622  UNL622      0.1146
   2488 H          14.9090    9.2286    6.5109 H     622  UNL622      0.1146
   2489 N          14.4215   10.0987    8.7668 N.3   623  UNL623     -0.3437
   2490 H          13.9798   10.3893    9.6379 H     623  UNL623      0.1146
   2491 H          15.1471   10.7883    8.5761 H     623  UNL623      0.1146
   2492 H          14.9090    9.2286    8.9757 H     623  UNL623      0.1146
   2493 N          14.4215   10.0987   11.2316 N.3   624  UNL624     -0.3437
   2494 H          13.9798   10.3893   12.1027 H     624  UNL624      0.1146
   2495 H          15.1471   10.7883   11.0409 H     624  UNL624      0.1146
   2496 H          14.9090    9.2286   11.4405 H     624  UNL624      0.1146
   2497 N          14.4215   10.0987   13.6963 N.3   625  UNL625     -0.3437
   2498 H          13.9798   10.3893   14.5674 H     625  UNL625      0.1146
   2499 H          15.1471   10.7883   13.5056 H     625  UNL625      0.1146
   2500 H          14.9090    9.2286   13.9052 H     625  UNL625      0.1146
   2501 N          14.4215   10.0987   16.1611 N.3   626  UNL626     -0.3437
   2502 H          13.9798   10.3893   17.0322 H     626  UNL626      0.1146
   2503 H          15.1471   10.7883   15.9704 H     626  UNL626      0.1146
   2504 H          14.9090    9.2286   16.3700 H     626  UNL626      0.1146
   2505 N          14.4215   10.0987   18.6259 N.3   627  UNL627     -0.3437
   2506 H          13.9798   10.3893   19.4970 H     627  UNL627      0.1146
   2507 H          15.1471   10.7883   18.4352 H     627  UNL627      0.1146
   2508 H          14.9090    9.2286   18.8348 H     627  UNL627      0.1146
   2509 N          14.4215   10.0987   21.0906 N.3   628  UNL628     -0.3437
   2510 H          13.9798   10.3893   21.9617 H     628  UNL628      0.1146
   2511 H          15.1471   10.7883   20.8999 H     628  UNL628      0.1146
   2512 H          14.9090    9.2286   21.2995 H     628  UNL628      0.1146
   2513 N          14.4215   10.0987   23.5554 N.3   629  UNL629     -0.3437
   2514 H          13.9798   10.3893   24.4265 H     629  UNL629      0.1146
   2515 H          15.1471   10.7883   23.3647 H     629  UNL629      0.1146
   2516 H          14.9090    9.2286   23.7643 H     629  UNL629      0.1146
   2517 N          14.4215   10.0987   26.0202 N.3   630  UNL630     -0.3437
   2518 H          13.9798   10.3893   26.8913 H     630  UNL630      0.1146
   2519 H          15.1471   10.7883   25.8295 H     630  UNL630      0.1146
   2520 H          14.9090    9.2286   26.2291 H     630  UNL630      0.1146
   2521 N          14.4215   10.0987   28.4849 N.3   631  UNL631     -0.3437
   2522 H          13.9798   10.3893   29.3560 H     631  UNL631      0.1146
   2523 H          15.1471   10.7883   28.2942 H     631  UNL631      0.1146
   2524 H          14.9090    9.2286   28.6938 H     631  UNL631      0.1146
   2525 N          14.4215    9.9646   31.3271 N.3   632  UNL632     -0.3437
   2526 H          13.9798   10.4886   30.5730 H     632  UNL632      0.1146
   2527 H          15.1471    9.3991   30.8888 H     632  UNL632      0.1146
   2528 H          14.9090   10.6527   31.8992 H     632  UNL632      0.1146
   2529 N          14.4215   10.0987   33.4145 N.3   633  UNL633     -0.3437
   2530 H          13.9798   10.3893   34.2856 H     633  UNL633      0.1146
   2531 H          15.1471   10.7883   33.2238 H     633  UNL633      0.1146
   2532 H          14.9090    9.2286   33.6234 H     633  UNL633      0.1146
   2533 N          14.3377    8.1157   36.9980 N.3   634  UNL634     -0.3437
   2534 H          14.4754    7.5222   37.8147 H     634  UNL634      0.1146
   2535 H          14.6168    9.0537   37.2821 H     634  UNL634      0.1146
   2536 H          15.0274    7.8134   36.3115 H     634  UNL634      0.1146
   2537 N          14.4215   12.7305    1.3725 N.3   635  UNL635     -0.3437
   2538 H          13.9798   13.0211    2.2436 H     635  UNL635      0.1146
   2539 H          15.1471   13.4201    1.1818 H     635  UNL635      0.1146
   2540 H          14.9090   11.8604    1.5814 H     635  UNL635      0.1146
   2541 N          14.6281   12.9459    3.8318 N.3   636  UNL636     -0.3437
   2542 H          14.0066   13.2688    4.5720 H     636  UNL636      0.1146
   2543 H          15.5342   12.7936    4.2724 H     636  UNL636      0.1146
   2544 H          14.2884   12.0238    3.5621 H     636  UNL636      0.1146
   2545 N          14.3850   12.6377    6.3818 N.3   637  UNL637     -0.3437
   2546 H          14.5128   12.2545    7.3174 H     637  UNL637      0.1146
   2547 H          14.2899   13.6451    6.5016 H     637  UNL637      0.1146
   2548 H          15.2696   12.4948    5.8966 H     637  UNL637      0.1146
   2549 N          14.4215   12.9526    9.1001 N.3   638  UNL638     -0.3437
   2550 H          13.9798   12.0808    8.8116 H     638  UNL638      0.1146
   2551 H          15.1471   12.6927    9.7667 H     638  UNL638      0.1146
   2552 H          14.9090   13.3060    8.2780 H     638  UNL638      0.1146
   2553 N          14.4215   12.9526   11.5649 N.3   639  UNL639     -0.3437
   2554 H          13.9798   12.0808   11.2764 H     639  UNL639      0.1146
   2555 H          15.1471   12.6927   12.2315 H     639  UNL639      0.1146
   2556 H          14.9090   13.3060   10.7428 H     639  UNL639      0.1146
   2557 N          14.4215   12.9526   14.0296 N.3   640  UNL640     -0.3437
   2558 H          13.9798   12.0808   13.7411 H     640  UNL640      0.1146
   2559 H          15.1471   12.6927   14.6962 H     640  UNL640      0.1146
   2560 H          14.9090   13.3060   13.2075 H     640  UNL640      0.1146
   2561 N          14.4215   12.9526   16.4944 N.3   641  UNL641     -0.3437
   2562 H          13.9798   12.0808   16.2059 H     641  UNL641      0.1146
   2563 H          15.1471   12.6927   17.1610 H     641  UNL641      0.1146
   2564 H          14.9090   13.3060   15.6723 H     641  UNL641      0.1146
   2565 N          14.4215   12.9526   18.9592 N.3   642  UNL642     -0.3437
   2566 H          13.9798   12.0808   18.6707 H     642  UNL642      0.1146
   2567 H          15.1471   12.6927   19.6258 H     642  UNL642      0.1146
   2568 H          14.9090   13.3060   18.1371 H     642  UNL642      0.1146
   2569 N          14.4215   12.9526   21.4240 N.3   643  UNL643     -0.3437
   2570 H          13.9798   12.0808   21.1355 H     643  UNL643      0.1146
   2571 H          15.1471   12.6927   22.0906 H     643  UNL643      0.1146
   2572 H          14.9090   13.3060   20.6019 H     643  UNL643      0.1146
   2573 N          14.4215   12.9526   23.8887 N.3   644  UNL644     -0.3437
   2574 H          13.9798   12.0808   23.6002 H     644  UNL644      0.1146
   2575 H          15.1471   12.6927   24.5553 H     644  UNL644      0.1146
   2576 H          14.9090   13.3060   23.0666 H     644  UNL644      0.1146
   2577 N          14.4215   12.9526   26.3535 N.3   645  UNL645     -0.3437
   2578 H          13.9798   12.0808   26.0650 H     645  UNL645      0.1146
   2579 H          15.1471   12.6927   27.0201 H     645  UNL645      0.1146
   2580 H          14.9090   13.3060   25.5314 H     645  UNL645      0.1146
   2581 N          14.3850   12.6377   28.5648 N.3   646  UNL646     -0.3437
   2582 H          14.5128   12.2545   29.5003 H     646  UNL646      0.1146
   2583 H          14.2899   13.6451   28.6845 H     646  UNL646      0.1146
   2584 H          15.2696   12.4948   28.0795 H     646  UNL646      0.1146
   2585 N          14.5516   12.7305   31.4596 N.3   647  UNL647     -0.3437
   2586 H          15.5139   13.0211   31.2921 H     647  UNL647      0.1146
   2587 H          13.9646   13.4201   30.9924 H     647  UNL647      0.1146
   2588 H          14.4272   11.8604   30.9440 H     647  UNL647      0.1146
   2589 N          14.4215   12.9526   33.7478 N.3   648  UNL648     -0.3437
   2590 H          13.9798   12.0808   33.4593 H     648  UNL648      0.1146
   2591 H          15.1471   12.6927   34.4144 H     648  UNL648      0.1146
   2592 H          14.9090   13.3060   32.9257 H     648  UNL648      0.1146
   2593 N          14.9079   10.7305   37.0801 N.3   649  UNL649     -0.3437
   2594 H          14.4743   11.0211   36.2049 H     649  UNL649      0.1146
   2595 H          14.6264   11.4201   37.7756 H     649  UNL649      0.1146
   2596 H          14.4488    9.8604   37.3457 H     649  UNL649      0.1146
   2597 N          14.4215   15.3623    8.7668 N.3   650  UNL650     -0.3437
   2598 H          13.9798   15.6529    9.6379 H     650  UNL650      0.1146
   2599 H          15.1471   16.0519    8.5761 H     650  UNL650      0.1146
   2600 H          14.9090   14.4922    8.9757 H     650  UNL650      0.1146
   2601 N          14.5992   16.6167   18.6593 N.3   651  UNL651     -0.3437
   2602 H          13.7931   16.5668   19.2807 H     651  UNL651      0.1146
   2603 H          15.4179   16.6615   19.2643 H     651  UNL651      0.1146
   2604 H          14.6471   15.7143   18.1884 H     651  UNL651      0.1146
   2605 N          14.6113   16.1322   31.0271 N.3   652  UNL652     -0.3437
   2606 H          13.6768   16.5069   31.1841 H     652  UNL652      0.1146
   2607 H          15.1252   16.8582   30.5298 H     652  UNL652      0.1146
   2608 H          15.0440   16.0620   31.9471 H     652  UNL652      0.1146
   2609 N          14.4215   15.3623   35.8793 N.3   653  UNL653     -0.3437
   2610 H          13.9798   15.6529   36.7504 H     653  UNL653      0.1146
   2611 H          15.1471   16.0519   35.6886 H     653  UNL653      0.1146
   2612 H          14.9090   14.4922   36.0882 H     653  UNL653      0.1146
   2613 N          17.7844   -0.4285   -1.0923 N.3   654  UNL654     -0.3437
   2614 H          17.3427   -0.1379   -0.2212 H     654  UNL654      0.1146
   2615 H          18.5100    0.2611   -1.2830 H     654  UNL654      0.1146
   2616 H          18.2719   -1.2986   -0.8834 H     654  UNL654      0.1146
   2617 N          17.7173   -0.3113    1.4862 N.3   655  UNL655     -0.3437
   2618 H          18.1681    0.3967    2.0640 H     655  UNL655      0.1146
   2619 H          18.3888   -0.5480    0.7571 H     655  UNL655      0.1146
   2620 H          17.6348   -1.1411    2.0719 H     655  UNL655      0.1146
   2621 N          17.7844   -0.5626    6.6794 N.3   656  UNL656     -0.3437
   2622 H          17.3427   -0.0386    5.9253 H     656  UNL656      0.1146
   2623 H          18.5100   -1.1281    6.2411 H     656  UNL656      0.1146
   2624 H          18.2719    0.1255    7.2515 H     656  UNL656      0.1146
   2625 N          17.7844   -0.5626   11.6090 N.3   657  UNL657     -0.3437
   2626 H          17.3427   -0.0386   10.8548 H     657  UNL657      0.1146
   2627 H          18.5100   -1.1281   11.1706 H     657  UNL657      0.1146
   2628 H          18.2719    0.1255   12.1810 H     657  UNL657      0.1146
   2629 N          17.7844   -0.2063   14.0296 N.3   658  UNL658     -0.3437
   2630 H          17.3427   -1.0781   13.7411 H     658  UNL658      0.1146
   2631 H          18.5100   -0.4663   14.6962 H     658  UNL658      0.1146
   2632 H          18.2719    0.1470   13.2075 H     658  UNL658      0.1146
   2633 N          17.7844   -0.5626   19.0033 N.3   659  UNL659     -0.3437
   2634 H          17.3427   -0.0386   18.2492 H     659  UNL659      0.1146
   2635 H          18.5100   -1.1281   18.5649 H     659  UNL659      0.1146
   2636 H          18.2719    0.1255   19.5754 H     659  UNL659      0.1146
   2637 N          17.7844   -0.5626   23.9328 N.3   660  UNL660     -0.3437
   2638 H          17.3427   -0.0386   23.1787 H     660  UNL660      0.1146
   2639 H          18.5100   -1.1281   23.4945 H     660  UNL660      0.1146
   2640 H          18.2719    0.1255   24.5049 H     660  UNL660      0.1146
   2641 N          17.7844   -0.2063   26.3535 N.3   661  UNL661     -0.3437
   2642 H          17.3427   -1.0781   26.0650 H     661  UNL661      0.1146
   2643 H          18.5100   -0.4663   27.0201 H     661  UNL661      0.1146
   2644 H          18.2719    0.1470   25.5314 H     661  UNL661      0.1146
   2645 N          17.7844   -0.5626   31.3271 N.3   662  UNL662     -0.3437
   2646 H          17.3427   -0.0386   30.5730 H     662  UNL662      0.1146
   2647 H          18.5100   -1.1281   30.8888 H     662  UNL662      0.1146
   2648 H          18.2719    0.1255   31.8992 H     662  UNL662      0.1146
   2649 N          17.7844   -0.4285   36.8793 N.3   663  UNL663     -0.3437
   2650 H          17.3427   -0.1379   37.7504 H     663  UNL663      0.1146
   2651 H          18.5100    0.2611   36.6886 H     663  UNL663      0.1146
   2652 H          18.2719   -1.2986   37.0882 H     663  UNL663      0.1146
   2653 N          17.7844    2.0692   -0.7149 N.3   664  UNL664     -0.3437
   2654 H          17.3427    2.5932   -1.4690 H     664  UNL664      0.1146
   2655 H          18.5100    1.5037   -1.1532 H     664  UNL664      0.1146
   2656 H          18.2719    2.7573   -0.1428 H     664  UNL664      0.1146
   2657 N          17.7844    2.4254    1.7058 N.3   665  UNL665     -0.3437
   2658 H          17.3427    1.5536    1.4173 H     665  UNL665      0.1146
   2659 H          18.5100    2.1655    2.3724 H     665  UNL665      0.1146
   2660 H          18.2719    2.7788    0.8837 H     665  UNL665      0.1146
   2661 N          17.7844    0.4254    4.1706 N.3   666  UNL666     -0.3437
   2662 H          17.3427   -0.4464    3.8821 H     666  UNL666      0.1146
   2663 H          18.5100    0.1655    4.8372 H     666  UNL666      0.1146
   2664 H          18.2719    0.7788    3.3485 H     666  UNL666      0.1146
   2665 N          17.7844    2.0692    6.6794 N.3   667  UNL667     -0.3437
   2666 H          17.3427    2.5932    5.9253 H     667  UNL667      0.1146
   2667 H          18.5100    1.5037    6.2411 H     667  UNL667      0.1146
   2668 H          18.2719    2.7573    7.2515 H     667  UNL667      0.1146
   2669 N          17.7844    0.4254    9.1001 N.3   668  UNL668     -0.3437
   2670 H          17.3427   -0.4464    8.8116 H     668  UNL668      0.1146
   2671 H          18.5100    0.1655    9.7667 H     668  UNL668      0.1146
   2672 H          18.2719    0.7788    8.2780 H     668  UNL668      0.1146
   2673 N          17.7844    2.0692   11.6090 N.3   669  UNL669     -0.3437
   2674 H          17.3427    2.5932   10.8548 H     669  UNL669      0.1146
   2675 H          18.5100    1.5037   11.1706 H     669  UNL669      0.1146
   2676 H          18.2719    2.7573   12.1810 H     669  UNL669      0.1146
   2677 N          17.7844    2.4254   14.0296 N.3   670  UNL670     -0.3437
   2678 H          17.3427    1.5536   13.7411 H     670  UNL670      0.1146
   2679 H          18.5100    2.1655   14.6962 H     670  UNL670      0.1146
   2680 H          18.2719    2.7788   13.2075 H     670  UNL670      0.1146
   2681 N          17.7844    0.2033   16.1611 N.3   671  UNL671     -0.3437
   2682 H          17.3427    0.4939   17.0322 H     671  UNL671      0.1146
   2683 H          18.5100    0.8929   15.9704 H     671  UNL671      0.1146
   2684 H          18.2719   -0.6668   16.3700 H     671  UNL671      0.1146
   2685 N          17.7844    2.4254   18.9592 N.3   672  UNL672     -0.3437
   2686 H          17.3427    1.5536   18.6707 H     672  UNL672      0.1146
   2687 H          18.5100    2.1655   19.6258 H     672  UNL672      0.1146
   2688 H          18.2719    2.7788   18.1371 H     672  UNL672      0.1146
   2689 N          17.7844    0.4254   21.4240 N.3   673  UNL673     -0.3437
   2690 H          17.3427   -0.4464   21.1355 H     673  UNL673      0.1146
   2691 H          18.5100    0.1655   22.0906 H     673  UNL673      0.1146
   2692 H          18.2719    0.7788   20.6019 H     673  UNL673      0.1146
   2693 N          17.7844    2.0692   23.9328 N.3   674  UNL674     -0.3437
   2694 H          17.3427    2.5932   23.1787 H     674  UNL674      0.1146
   2695 H          18.5100    1.5037   23.4945 H     674  UNL674      0.1146
   2696 H          18.2719    2.7573   24.5049 H     674  UNL674      0.1146
   2697 N          17.7844    2.4254   26.3535 N.3   675  UNL675     -0.3437
   2698 H          17.3427    1.5536   26.0650 H     675  UNL675      0.1146
   2699 H          18.5100    2.1655   27.0201 H     675  UNL675      0.1146
   2700 H          18.2719    2.7788   25.5314 H     675  UNL675      0.1146
   2701 N          17.7844    0.2033   28.4849 N.3   676  UNL676     -0.3437
   2702 H          17.3427    0.4939   29.3560 H     676  UNL676      0.1146
   2703 H          18.5100    0.8929   28.2942 H     676  UNL676      0.1146
   2704 H          18.2719   -0.6668   28.6938 H     676  UNL676      0.1146
   2705 N          17.7844    2.4254   31.2830 N.3   677  UNL677     -0.3437
   2706 H          17.3427    1.5536   30.9945 H     677  UNL677      0.1146
   2707 H          18.5100    2.1655   31.9496 H     677  UNL677      0.1146
   2708 H          18.2719    2.7788   30.4609 H     677  UNL677      0.1146
   2709 N          17.7844    0.4254   33.7478 N.3   678  UNL678     -0.3437
   2710 H          17.3427   -0.4464   33.4593 H     678  UNL678      0.1146
   2711 H          18.5100    0.1655   34.4144 H     678  UNL678      0.1146
   2712 H          18.2719    0.7788   32.9257 H     678  UNL678      0.1146
   2713 N          17.7844    2.0692   36.2567 N.3   679  UNL679     -0.3437
   2714 H          17.3427    2.5932   35.5025 H     679  UNL679      0.1146
   2715 H          18.5100    1.5037   35.8183 H     679  UNL679      0.1146
   2716 H          18.2719    2.7573   36.8287 H     679  UNL679      0.1146
   2717 N          17.7844    5.0572    1.7058 N.3   680  UNL680     -0.3437
   2718 H          17.3427    4.1854    1.4173 H     680  UNL680      0.1146
   2719 H          18.5100    4.7973    2.3724 H     680  UNL680      0.1146
   2720 H          18.2719    5.4106    0.8837 H     680  UNL680      0.1146
   2721 N          17.7844    2.8351    3.8372 N.3   681  UNL681     -0.3437
   2722 H          17.3427    3.1257    4.7083 H     681  UNL681      0.1146
   2723 H          18.5100    3.5247    3.6465 H     681  UNL681      0.1146
   2724 H          18.2719    1.9650    4.0461 H     681  UNL681      0.1146
   2725 N          18.1573    5.0970    6.5166 N.3   682  UNL682     -0.3437
   2726 H          17.2037    5.3412    6.7800 H     682  UNL682      0.1146
   2727 H          18.4603    4.3888    7.1838 H     682  UNL682      0.1146
   2728 H          18.0877    4.6236    5.6169 H     682  UNL682      0.1146
   2729 N          18.2624    4.8351    8.9163 N.3   683  UNL683     -0.3437
   2730 H          17.6816    5.1257    8.1311 H     683  UNL683      0.1146
   2731 H          18.1078    5.5247    9.6504 H     683  UNL683      0.1146
   2732 H          17.8572    3.9650    9.2585 H     683  UNL683      0.1146
   2733 N          17.7844    5.0572   11.5649 N.3   684  UNL684     -0.3437
   2734 H          17.3427    4.1854   11.2764 H     684  UNL684      0.1146
   2735 H          18.5100    4.7973   12.2315 H     684  UNL684      0.1146
   2736 H          18.2719    5.4106   10.7428 H     684  UNL684      0.1146
   2737 N          17.7844    5.0572   14.0296 N.3   685  UNL685     -0.3437
   2738 H          17.3427    4.1854   13.7411 H     685  UNL685      0.1146
   2739 H          18.5100    4.7973   14.6962 H     685  UNL685      0.1146
   2740 H          18.2719    5.4106   13.2075 H     685  UNL685      0.1146
   2741 N          18.1307    2.6440   16.5099 N.3   686  UNL686     -0.3437
   2742 H          18.2120    2.6460   15.4942 H     686  UNL686      0.1146
   2743 H          18.4331    3.5671   16.8177 H     686  UNL686      0.1146
   2744 H          17.1332    2.5935   16.7118 H     686  UNL686      0.1146
   2745 N          17.7844    5.0572   18.9592 N.3   687  UNL687     -0.3437
   2746 H          17.3427    4.1854   18.6707 H     687  UNL687      0.1146
   2747 H          18.5100    4.7973   19.6258 H     687  UNL687      0.1146
   2748 H          18.2719    5.4106   18.1371 H     687  UNL687      0.1146
   2749 N          17.7844    2.8351   21.0906 N.3   688  UNL688     -0.3437
   2750 H          17.3427    3.1257   21.9617 H     688  UNL688      0.1146
   2751 H          18.5100    3.5247   20.8999 H     688  UNL688      0.1146
   2752 H          18.2719    1.9650   21.2995 H     688  UNL688      0.1146
   2753 N          17.7844    5.0572   23.8887 N.3   689  UNL689     -0.3437
   2754 H          17.3427    4.1854   23.6002 H     689  UNL689      0.1146
   2755 H          18.5100    4.7973   24.5553 H     689  UNL689      0.1146
   2756 H          18.2719    5.4106   23.0666 H     689  UNL689      0.1146
   2757 N          17.7844    5.0572   26.3535 N.3   690  UNL690     -0.3437
   2758 H          17.3427    4.1854   26.0650 H     690  UNL690      0.1146
   2759 H          18.5100    4.7973   27.0201 H     690  UNL690      0.1146
   2760 H          18.2719    5.4106   25.5314 H     690  UNL690      0.1146
   2761 N          18.1307    2.6440   28.8338 N.3   691  UNL691     -0.3437
   2762 H          18.2120    2.6460   27.8180 H     691  UNL691      0.1146
   2763 H          18.4331    3.5671   29.1416 H     691  UNL691      0.1146
   2764 H          17.1332    2.5935   29.0357 H     691  UNL691      0.1146
   2765 N          17.7844    5.0572   31.2830 N.3   692  UNL692     -0.3437
   2766 H          17.3427    4.1854   30.9945 H     692  UNL692      0.1146
   2767 H          18.5100    4.7973   31.9496 H     692  UNL692      0.1146
   2768 H          18.2719    5.4106   30.4609 H     692  UNL692      0.1146
   2769 N          17.7844    2.8351   33.4145 N.3   693  UNL693     -0.3437
   2770 H          17.3427    3.1257   34.2856 H     693  UNL693      0.1146
   2771 H          18.5100    3.5247   33.2238 H     693  UNL693      0.1146
   2772 H          18.2719    1.9650   33.6234 H     693  UNL693      0.1146
   2773 N          17.7006    4.8521   36.9980 N.3   694  UNL694     -0.3437
   2774 H          17.8383    4.2586   37.8147 H     694  UNL694      0.1146
   2775 H          17.9797    5.7901   37.2821 H     694  UNL694      0.1146
   2776 H          18.3904    4.5498   36.3115 H     694  UNL694      0.1146
   2777 N          17.7844    7.6890    1.7058 N.3   695  UNL695     -0.3437
   2778 H          17.3427    6.8172    1.4173 H     695  UNL695      0.1146
   2779 H          18.5100    7.4291    2.3724 H     695  UNL695      0.1146
   2780 H          18.2719    8.0424    0.8837 H     695  UNL695      0.1146
   2781 N          17.7844    7.6890    4.1706 N.3   696  UNL696     -0.3437
   2782 H          17.3427    6.8172    3.8821 H     696  UNL696      0.1146
   2783 H          18.5100    7.4291    4.8372 H     696  UNL696      0.1146
   2784 H          18.2719    8.0424    3.3485 H     696  UNL696      0.1146
   2785 N          16.9761    7.3794    6.2520 N.3   697  UNL697     -0.3437
   2786 H          16.4240    8.2330    6.3216 H     697  UNL697      0.1146
   2787 H          17.9120    7.6233    6.5729 H     697  UNL697      0.1146
   2788 H          16.5970    6.7419    6.9508 H     697  UNL697      0.1146
   2789 N          17.7173    7.5840    8.8805 N.3   698  UNL698     -0.3437
   2790 H          18.1681    8.2921    9.4583 H     698  UNL698      0.1146
   2791 H          18.3888    7.3474    8.1514 H     698  UNL698      0.1146
   2792 H          17.6348    6.7543    9.4662 H     698  UNL698      0.1146
   2793 N          17.7844    7.6890   11.5649 N.3   699  UNL699     -0.3437
   2794 H          17.3427    6.8172   11.2764 H     699  UNL699      0.1146
   2795 H          18.5100    7.4291   12.2315 H     699  UNL699      0.1146
   2796 H          18.2719    8.0424   10.7428 H     699  UNL699      0.1146
   2797 N          17.7844    7.6890   14.0296 N.3   700  UNL700     -0.3437
   2798 H          17.3427    6.8172   13.7411 H     700  UNL700      0.1146
   2799 H          18.5100    7.4291   14.6962 H     700  UNL700      0.1146
   2800 H          18.2719    8.0424   13.2075 H     700  UNL700      0.1146
   2801 N          18.1747    5.6823   16.4978 N.3   701  UNL701     -0.3437
   2802 H          17.7914    6.0052   15.6105 H     701  UNL701      0.1146
   2803 H          17.3748    5.5300   17.1105 H     701  UNL701      0.1146
   2804 H          18.5680    4.7602   16.3149 H     701  UNL701      0.1146
   2805 N          17.7844    7.3328   19.0033 N.3   702  UNL702     -0.3437
   2806 H          17.3427    7.8568   18.2492 H     702  UNL702      0.1146
   2807 H          18.5100    6.7673   18.5649 H     702  UNL702      0.1146
   2808 H          18.2719    8.0209   19.5754 H     702  UNL702      0.1146
   2809 N          17.7844    7.6890   21.4240 N.3   703  UNL703     -0.3437
   2810 H          17.3427    6.8172   21.1355 H     703  UNL703      0.1146
   2811 H          18.5100    7.4291   22.0906 H     703  UNL703      0.1146
   2812 H          18.2719    8.0424   20.6019 H     703  UNL703      0.1146
   2813 N          17.7844    7.6890   23.8887 N.3   704  UNL704     -0.3437
   2814 H          17.3427    6.8172   23.6002 H     704  UNL704      0.1146
   2815 H          18.5100    7.4291   24.5553 H     704  UNL704      0.1146
   2816 H          18.2719    8.0424   23.0666 H     704  UNL704      0.1146
   2817 N          17.7844    7.6890   26.3535 N.3   705  UNL705     -0.3437
   2818 H          17.3427    6.8172   26.0650 H     705  UNL705      0.1146
   2819 H          18.5100    7.4291   27.0201 H     705  UNL705      0.1146
   2820 H          18.2719    8.0424   25.5314 H     705  UNL705      0.1146
   2821 N          18.1747    5.6823   28.8216 N.3   706  UNL706     -0.3437
   2822 H          17.7914    6.0052   27.9344 H     706  UNL706      0.1146
   2823 H          17.3748    5.5300   29.4343 H     706  UNL706      0.1146
   2824 H          18.5680    4.7602   28.6388 H     706  UNL706      0.1146
   2825 N          17.7844    7.3328   31.3271 N.3   707  UNL707     -0.3437
   2826 H          17.3427    7.8568   30.5730 H     707  UNL707      0.1146
   2827 H          18.5100    6.7673   30.8888 H     707  UNL707      0.1146
   2828 H          18.2719    8.0209   31.8992 H     707  UNL707      0.1146
   2829 N          17.7844    7.6890   33.7478 N.3   708  UNL708     -0.3437
   2830 H          17.3427    6.8172   33.4593 H     708  UNL708      0.1146
   2831 H          18.5100    7.4291   34.4144 H     708  UNL708      0.1146
   2832 H          18.2719    8.0424   32.9257 H     708  UNL708      0.1146
   2833 N          18.1147    7.3564   36.8793 N.3   709  UNL709     -0.3437
   2834 H          18.1462    6.8286   37.7504 H     709  UNL709      0.1146
   2835 H          17.1280    7.5250   36.6886 H     709  UNL709      0.1146
   2836 H          18.5201    8.2677   37.0882 H     709  UNL709      0.1146
   2837 N          17.7844   10.3208    1.7058 N.3   710  UNL710     -0.3437
   2838 H          17.3427    9.4490    1.4173 H     710  UNL710      0.1146
   2839 H          18.5100   10.0609    2.3724 H     710  UNL710      0.1146
   2840 H          18.2719   10.6742    0.8837 H     710  UNL710      0.1146
   2841 N          17.7844   10.3208    4.1706 N.3   711  UNL711     -0.3437
   2842 H          17.3427    9.4490    3.8821 H     711  UNL711      0.1146
   2843 H          18.5100   10.0609    4.8372 H     711  UNL711      0.1146
   2844 H          18.2719   10.6742    3.3485 H     711  UNL711      0.1146
   2845 N          17.7844   10.3208    6.6353 N.3   712  UNL712     -0.3437
   2846 H          17.3427    9.4490    6.3468 H     712  UNL712      0.1146
   2847 H          18.5100   10.0609    7.3019 H     712  UNL712      0.1146
   2848 H          18.2719   10.6742    5.8132 H     712  UNL712      0.1146
   2849 N          16.9761   10.0112    8.7168 N.3   713  UNL713     -0.3437
   2850 H          16.4240   10.8648    8.7864 H     713  UNL713      0.1146
   2851 H          17.9120   10.2551    9.0377 H     713  UNL713      0.1146
   2852 H          16.5969    9.3737    9.4156 H     713  UNL713      0.1146
   2853 N          17.7173   10.2158   11.3453 N.3   714  UNL714     -0.3437
   2854 H          18.1681   10.9238   11.9231 H     714  UNL714      0.1146
   2855 H          18.3888    9.9791   10.6162 H     714  UNL714      0.1146
   2856 H          17.6348    9.3861   11.9310 H     714  UNL714      0.1146
   2857 N          17.7844   10.3208   14.0296 N.3   715  UNL715     -0.3437
   2858 H          17.3427    9.4490   13.7411 H     715  UNL715      0.1146
   2859 H          18.5100   10.0609   14.6962 H     715  UNL715      0.1146
   2860 H          18.2719   10.6742   13.2075 H     715  UNL715      0.1146
   2861 N          17.7844    8.0987   16.1611 N.3   716  UNL716     -0.3437
   2862 H          17.3427    8.3893   17.0322 H     716  UNL716      0.1146
   2863 H          18.5100    8.7883   15.9704 H     716  UNL716      0.1146
   2864 H          18.2719    7.2286   16.3700 H     716  UNL716      0.1146
   2865 N          18.1573   10.3605   18.8405 N.3   717  UNL717     -0.3437
   2866 H          17.2037   10.6048   19.1039 H     717  UNL717      0.1146
   2867 H          18.4603    9.6524   19.5076 H     717  UNL717      0.1146
   2868 H          18.0877    9.8872   17.9408 H     717  UNL717      0.1146
   2869 N          17.7844   10.3208   21.4240 N.3   718  UNL718     -0.3437
   2870 H          17.3427    9.4490   21.1355 H     718  UNL718      0.1146
   2871 H          18.5100   10.0609   22.0906 H     718  UNL718      0.1146
   2872 H          18.2719   10.6742   20.6019 H     718  UNL718      0.1146
   2873 N          17.7844   10.3208   23.8887 N.3   719  UNL719     -0.3437
   2874 H          17.3427    9.4490   23.6002 H     719  UNL719      0.1146
   2875 H          18.5100   10.0609   24.5553 H     719  UNL719      0.1146
   2876 H          18.2719   10.6742   23.0666 H     719  UNL719      0.1146
   2877 N          17.7844   10.3208   26.3535 N.3   720  UNL720     -0.3437
   2878 H          17.3427    9.4490   26.0650 H     720  UNL720      0.1146
   2879 H          18.5100   10.0609   27.0201 H     720  UNL720      0.1146
   2880 H          18.2719   10.6742   25.5314 H     720  UNL720      0.1146
   2881 N          17.7844    8.0987   28.4849 N.3   721  UNL721     -0.3437
   2882 H          17.3427    8.3893   29.3560 H     721  UNL721      0.1146
   2883 H          18.5100    8.7883   28.2942 H     721  UNL721      0.1146
   2884 H          18.2719    7.2286   28.6938 H     721  UNL721      0.1146
   2885 N          18.1573   10.3605   31.1643 N.3   722  UNL722     -0.3437
   2886 H          17.2037   10.6048   31.4277 H     722  UNL722      0.1146
   2887 H          18.4603    9.6524   31.8315 H     722  UNL722      0.1146
   2888 H          18.0877    9.8872   30.2646 H     722  UNL722      0.1146
   2889 N          17.7844   10.3208   33.7478 N.3   723  UNL723     -0.3437
   2890 H          17.3427    9.4490   33.4593 H     723  UNL723      0.1146
   2891 H          18.5100   10.0609   34.4144 H     723  UNL723      0.1146
   2892 H          18.2719   10.6742   32.9257 H     723  UNL723      0.1146
   2893 N          17.7006   10.1157   36.9980 N.3   724  UNL724     -0.3437
   2894 H          17.8383    9.5222   37.8147 H     724  UNL724      0.1146
   2895 H          17.9797   11.0537   37.2821 H     724  UNL724      0.1146
   2896 H          18.3904    9.8134   36.3115 H     724  UNL724      0.1146
   2897 N          17.7844   12.9526    1.7058 N.3   725  UNL725     -0.3437
   2898 H          17.3427   12.0808    1.4173 H     725  UNL725      0.1146
   2899 H          18.5100   12.6927    2.3724 H     725  UNL725      0.1146
   2900 H          18.2719   13.3060    0.8837 H     725  UNL725      0.1146
   2901 N          17.7844   12.9526    4.1706 N.3   726  UNL726     -0.3437
   2902 H          17.3427   12.0808    3.8821 H     726  UNL726      0.1146
   2903 H          18.5100   12.6927    4.8372 H     726  UNL726      0.1146
   2904 H          18.2719   13.3060    3.3485 H     726  UNL726      0.1146
   2905 N          17.7844   12.9526    6.6353 N.3   727  UNL727     -0.3437
   2906 H          17.3427   12.0808    6.3468 H     727  UNL727      0.1146
   2907 H          18.5100   12.6927    7.3019 H     727  UNL727      0.1146
   2908 H          18.2719   13.3060    5.8132 H     727  UNL727      0.1146
   2909 N          17.7844   12.9526    9.1001 N.3   728  UNL728     -0.3437
   2910 H          17.3427   12.0808    8.8116 H     728  UNL728      0.1146
   2911 H          18.5100   12.6927    9.7667 H     728  UNL728      0.1146
   2912 H          18.2719   13.3060    8.2780 H     728  UNL728      0.1146
   2913 N          17.7844   12.9526   11.5649 N.3   729  UNL729     -0.3437
   2914 H          17.3427   12.0808   11.2764 H     729  UNL729      0.1146
   2915 H          18.5100   12.6927   12.2315 H     729  UNL729      0.1146
   2916 H          18.2719   13.3060   10.7428 H     729  UNL729      0.1146
   2917 N          17.7844   12.9526   14.0296 N.3   730  UNL730     -0.3437
   2918 H          17.3427   12.0808   13.7411 H     730  UNL730      0.1146
   2919 H          18.5100   12.6927   14.6962 H     730  UNL730      0.1146
   2920 H          18.2719   13.3060   13.2075 H     730  UNL730      0.1146
   2921 N          17.7844   12.9526   16.4944 N.3   731  UNL731     -0.3437
   2922 H          17.3427   12.0808   16.2059 H     731  UNL731      0.1146
   2923 H          18.5100   12.6927   17.1610 H     731  UNL731      0.1146
   2924 H          18.2719   13.3060   15.6723 H     731  UNL731      0.1146
   2925 N          17.2388   12.7528   18.9859 N.3   732  UNL732     -0.3437
   2926 H          17.1709   13.5008   18.2973 H     732  UNL732      0.1146
   2927 H          16.4584   12.8894   19.6268 H     732  UNL732      0.1146
   2928 H          17.0410   11.8890   18.4827 H     732  UNL732      0.1146
   2929 N          18.1147   12.6200   21.0906 N.3   733  UNL733     -0.3437
   2930 H          18.1462   12.0922   21.9617 H     733  UNL733      0.1146
   2931 H          17.1280   12.7886   20.8999 H     733  UNL733      0.1146
   2932 H          18.5201   13.5313   21.2995 H     733  UNL733      0.1146
   2933 N          17.7844   12.9526   23.8887 N.3   734  UNL734     -0.3437
   2934 H          17.3427   12.0808   23.6002 H     734  UNL734      0.1146
   2935 H          18.5100   12.6927   24.5553 H     734  UNL734      0.1146
   2936 H          18.2719   13.3060   23.0666 H     734  UNL734      0.1146
   2937 N          17.7844   12.9526   26.3535 N.3   735  UNL735     -0.3437
   2938 H          17.3427   12.0808   26.0650 H     735  UNL735      0.1146
   2939 H          18.5100   12.6927   27.0201 H     735  UNL735      0.1146
   2940 H          18.2719   13.3060   25.5314 H     735  UNL735      0.1146
   2941 N          17.7844   12.9526   28.8183 N.3   736  UNL736     -0.3437
   2942 H          17.3427   12.0808   28.5298 H     736  UNL736      0.1146
   2943 H          18.5100   12.6927   29.4849 H     736  UNL736      0.1146
   2944 H          18.2719   13.3060   27.9962 H     736  UNL736      0.1146
   2945 N          16.9621   12.9849   30.9831 N.3   737  UNL737     -0.3437
   2946 H          16.1561   12.9350   31.6046 H     737  UNL737      0.1146
   2947 H          17.7809   13.0297   31.5881 H     737  UNL737      0.1146
   2948 H          17.0100   12.0825   30.5123 H     737  UNL737      0.1146
   2949 N          17.7173   12.8476   33.5282 N.3   738  UNL738     -0.3437
   2950 H          18.1681   13.5556   34.1060 H     738  UNL738      0.1146
   2951 H          18.3888   12.6109   32.7991 H     738  UNL738      0.1146
   2952 H          17.6348   12.0179   34.1139 H     738  UNL738      0.1146
   2953 N          18.1147   12.6200   36.8793 N.3   739  UNL739     -0.3437
   2954 H          18.1462   12.0922   37.7504 H     739  UNL739      0.1146
   2955 H          17.1280   12.7886   36.6886 H     739  UNL739      0.1146
   2956 H          18.5201   13.5313   37.0882 H     739  UNL739      0.1146
   2957 N          17.7844   16.5844    1.7058 N.3   740  UNL740     -0.3437
   2958 H          17.3427   15.7126    1.4173 H     740  UNL740      0.1146
   2959 H          18.5100   16.3245    2.3724 H     740  UNL740      0.1146
   2960 H          18.2719   16.9378    0.8837 H     740  UNL740      0.1146
   2961 N          17.7844   15.5844    4.1706 N.3   741  UNL741     -0.3437
   2962 H          17.3427   14.7126    3.8821 H     741  UNL741      0.1146
   2963 H          18.5100   15.3245    4.8372 H     741  UNL741      0.1146
   2964 H          18.2719   15.9378    3.3485 H     741  UNL741      0.1146
   2965 N          17.7844   16.5844   11.5649 N.3   742  UNL742     -0.3437
   2966 H          17.3427   15.7126   11.2764 H     742  UNL742      0.1146
   2967 H          18.5100   16.3245   12.2315 H     742  UNL742      0.1146
   2968 H          18.2719   16.9378   10.7428 H     742  UNL742      0.1146
   2969 N          17.7844   15.5844   14.0296 N.3   743  UNL743     -0.3437
   2970 H          17.3427   14.7126   13.7411 H     743  UNL743      0.1146
   2971 H          18.5100   15.3245   14.6962 H     743  UNL743      0.1146
   2972 H          18.2719   15.9378   13.2075 H     743  UNL743      0.1146
   2973 N          18.1528   16.6009   23.8873 N.3   744  UNL744     -0.3437
   2974 H          18.3125   15.6919   24.3193 H     744  UNL744      0.1146
   2975 H          18.2809   16.4624   22.8859 H     744  UNL744      0.1146
   2976 H          17.1628   16.8040   24.0183 H     744  UNL744      0.1146
   2977 N          17.7844   16.5844   26.3535 N.3   745  UNL745     -0.3437
   2978 H          17.3427   15.7126   26.0650 H     745  UNL745      0.1146
   2979 H          18.5100   16.3245   27.0201 H     745  UNL745      0.1146
   2980 H          18.2719   16.9378   25.5314 H     745  UNL745      0.1146
   2981 N          17.7844   15.5844   28.8183 N.3   746  UNL746     -0.3437
   2982 H          17.3427   14.7126   28.5298 H     746  UNL746      0.1146
   2983 H          18.5100   15.3245   29.4849 H     746  UNL746      0.1146
   2984 H          18.2719   15.9378   27.9962 H     746  UNL746      0.1146
   2985 N          16.7844   15.3623   30.9497 N.3   747  UNL747     -0.3437
   2986 H          16.3427   15.6529   31.8208 H     747  UNL747      0.1146
   2987 H          17.5100   16.0519   30.7590 H     747  UNL747      0.1146
   2988 H          17.2719   14.4922   31.1586 H     747  UNL747      0.1146
   2989 N          18.1528   16.6009   33.7464 N.3   748  UNL748     -0.3437
   2990 H          18.3125   15.6919   34.1784 H     748  UNL748      0.1146
   2991 H          18.2809   16.4624   32.7450 H     748  UNL748      0.1146
   2992 H          17.1628   16.8040   33.8774 H     748  UNL748      0.1146
   2993 N          17.7844   15.5844   36.2126 N.3   749  UNL749     -0.3437
   2994 H          17.3427   14.7126   35.9241 H     749  UNL749      0.1146
   2995 H          18.5100   15.3245   36.8792 H     749  UNL749      0.1146
   2996 H          18.2719   15.9378   35.3905 H     749  UNL749      0.1146
@<TRIPOS>BOND
     1     1     2    1
     2     1     3    1
     3     1     4    1
     4     5     6    1
     5     5     7    1
     6     5     8    1
     7     9    10    1
     8     9    11    1
     9     9    12    1
    10    13    14    1
    11    13    15    1
    12    13    16    1
    13    17    18    1
    14    17    19    1
    15    17    20    1
    16    21    22    1
    17    21    23    1
    18    21    24    1
    19    25    26    1
    20    25    27    1
    21    25    28    1
    22    29    30    1
    23    29    31    1
    24    29    32    1
    25    33    34    1
    26    33    35    1
    27    33    36    1
    28    37    38    1
    29    37    39    1
    30    37    40    1
    31    41    42    1
    32    41    43    1
    33    41    44    1
    34    45    46    1
    35    45    47    1
    36    45    48    1
    37    49    50    1
    38    49    51    1
    39    49    52    1
    40    53    54    1
    41    53    55    1
    42    53    56    1
    43    57    58    1
    44    57    59    1
    45    57    60    1
    46    61    62    1
    47    61    63    1
    48    61    64    1
    49    65    66    1
    50    65    67    1
    51    65    68    1
    52    69    70    1
    53    69    71    1
    54    69    72    1
    55    73    74    1
    56    73    75    1
    57    73    76    1
    58    77    78    1
    59    77    79    1
    60    77    80    1
    61    81    82    1
    62    81    83    1
    63    81    84    1
    64    85    86    1
    65    85    87    1
    66    85    88    1
    67    89    90    1
    68    89    91    1
    69    89    92    1
    70    93    94    1
    71    93    95    1
    72    93    96    1
    73    97    98    1
    74    97    99    1
    75    97   100    1
    76   101   102    1
    77   101   103    1
    78   101   104    1
    79   105   106    1
    80   105   107    1
    81   105   108    1
    82   109   110    1
    83   109   111    1
    84   109   112    1
    85   113   114    1
    86   113   115    1
    87   113   116    1
    88   117   118    1
    89   117   119    1
    90   117   120    1
    91   121   122    1
    92   121   123    1
    93   121   124    1
    94   125   126    1
    95   125   127    1
    96   125   128    1
    97   129   130    1
    98   129   131    1
    99   129   132    1
   100   133   134    1
   101   133   135    1
   102   133   136    1
   103   137   138    1
   104   137   139    1
   105   137   140    1
   106   141   142    1
   107   141   143    1
   108   141   144    1
   109   145   146    1
   110   145   147    1
   111   145   148    1
   112   149   150    1
   113   149   151    1
   114   149   152    1
   115   153   154    1
   116   153   155    1
   117   153   156    1
   118   157   158    1
   119   157   159    1
   120   157   160    1
   121   161   162    1
   122   161   163    1
   123   161   164    1
   124   165   166    1
   125   165   167    1
   126   165   168    1
   127   169   170    1
   128   169   171    1
   129   169   172    1
   130   173   174    1
   131   173   175    1
   132   173   176    1
   133   177   178    1
   134   177   179    1
   135   177   180    1
   136   181   182    1
   137   181   183    1
   138   181   184    1
   139   185   186    1
   140   185   187    1
   141   185   188    1
   142   189   190    1
   143   189   191    1
   144   189   192    1
   145   193   194    1
   146   193   195    1
   147   193   196    1
   148   197   198    1
   149   197   199    1
   150   197   200    1
   151   201   202    1
   152   201   203    1
   153   201   204    1
   154   205   206    1
   155   205   207    1
   156   205   208    1
   157   209   210    1
   158   209   211    1
   159   209   212    1
   160   213   214    1
   161   213   215    1
   162   213   216    1
   163   217   218    1
   164   217   219    1
   165   217   220    1
   166   221   222    1
   167   221   223    1
   168   221   224    1
   169   225   226    1
   170   225   227    1
   171   225   228    1
   172   229   230    1
   173   229   231    1
   174   229   232    1
   175   233   234    1
   176   233   235    1
   177   233   236    1
   178   237   238    1
   179   237   239    1
   180   237   240    1
   181   241   242    1
   182   241   243    1
   183   241   244    1
   184   245   246    1
   185   245   247    1
   186   245   248    1
   187   249   250    1
   188   249   251    1
   189   249   252    1
   190   253   254    1
   191   253   255    1
   192   253   256    1
   193   257   258    1
   194   257   259    1
   195   257   260    1
   196   261   262    1
   197   261   263    1
   198   261   264    1
   199   265   266    1
   200   265   267    1
   201   265   268    1
   202   269   270    1
   203   269   271    1
   204   269   272    1
   205   273   274    1
   206   273   275    1
   207   273   276    1
   208   277   278    1
   209   277   279    1
   210   277   280    1
   211   281   282    1
   212   281   283    1
   213   281   284    1
   214   285   286    1
   215   285   287    1
   216   285   288    1
   217   289   290    1
   218   289   291    1
   219   289   292    1
   220   293   294    1
   221   293   295    1
   222   293   296    1
   223   297   298    1
   224   297   299    1
   225   297   300    1
   226   301   302    1
   227   301   303    1
   228   301   304    1
   229   305   306    1
   230   305   307    1
   231   305   308    1
   232   309   310    1
   233   309   311    1
   234   309   312    1
   235   313   314    1
   236   313   315    1
   237   313   316    1
   238   317   318    1
   239   317   319    1
   240   317   320    1
   241   321   322    1
   242   321   323    1
   243   321   324    1
   244   325   326    1
   245   325   327    1
   246   325   328    1
   247   329   330    1
   248   329   331    1
   249   329   332    1
   250   333   334    1
   251   333   335    1
   252   333   336    1
   253   337   338    1
   254   337   339    1
   255   337   340    1
   256   341   342    1
   257   341   343    1
   258   341   344    1
   259   345   346    1
   260   345   347    1
   261   345   348    1
   262   349   350    1
   263   349   351    1
   264   349   352    1
   265   353   354    1
   266   353   355    1
   267   353   356    1
   268   357   358    1
   269   357   359    1
   270   357   360    1
   271   361   362    1
   272   361   363    1
   273   361   364    1
   274   365   366    1
   275   365   367    1
   276   365   368    1
   277   369   370    1
   278   369   371    1
   279   369   372    1
   280   373   374    1
   281   373   375    1
   282   373   376    1
   283   377   378    1
   284   377   379    1
   285   377   380    1
   286   381   382    1
   287   381   383    1
   288   381   384    1
   289   385   386    1
   290   385   387    1
   291   385   388    1
   292   389   390    1
   293   389   391    1
   294   389   392    1
   295   393   394    1
   296   393   395    1
   297   393   396    1
   298   397   398    1
   299   397   399    1
   300   397   400    1
   301   401   402    1
   302   401   403    1
   303   401   404    1
   304   405   406    1
   305   405   407    1
   306   405   408    1
   307   409   410    1
   308   409   411    1
   309   409   412    1
   310   413   414    1
   311   413   415    1
   312   413   416    1
   313   417   418    1
   314   417   419    1
   315   417   420    1
   316   421   422    1
   317   421   423    1
   318   421   424    1
   319   425   426    1
   320   425   427    1
   321   425   428    1
   322   429   430    1
   323   429   431    1
   324   429   432    1
   325   433   434    1
   326   433   435    1
   327   433   436    1
   328   437   438    1
   329   437   439    1
   330   437   440    1
   331   441   442    1
   332   441   443    1
   333   441   444    1
   334   445   446    1
   335   445   447    1
   336   445   448    1
   337   449   450    1
   338   449   451    1
   339   449   452    1
   340   453   454    1
   341   453   455    1
   342   453   456    1
   343   457   458    1
   344   457   459    1
   345   457   460    1
   346   461   462    1
   347   461   463    1
   348   461   464    1
   349   465   466    1
   350   465   467    1
   351   465   468    1
   352   469   470    1
   353   469   471    1
   354   469   472    1
   355   473   474    1
   356   473   475    1
   357   473   476    1
   358   477   478    1
   359   477   479    1
   360   477   480    1
   361   481   482    1
   362   481   483    1
   363   481   484    1
   364   485   486    1
   365   485   487    1
   366   485   488    1
   367   489   490    1
   368   489   491    1
   369   489   492    1
   370   493   494    1
   371   493   495    1
   372   493   496    1
   373   497   498    1
   374   497   499    1
   375   497   500    1
   376   501   502    1
   377   501   503    1
   378   501   504    1
   379   505   506    1
   380   505   507    1
   381   505   508    1
   382   509   510    1
   383   509   511    1
   384   509   512    1
   385   513   514    1
   386   513   515    1
   387   513   516    1
   388   517   518    1
   389   517   519    1
   390   517   520    1
   391   521   522    1
   392   521   523    1
   393   521   524    1
   394   525   526    1
   395   525   527    1
   396   525   528    1
   397   529   530    1
   398   529   531    1
   399   529   532    1
   400   533   534    1
   401   533   535    1
   402   533   536    1
   403   537   538    1
   404   537   539    1
   405   537   540    1
   406   541   542    1
   407   541   543    1
   408   541   544    1
   409   545   546    1
   410   545   547    1
   411   545   548    1
   412   549   550    1
   413   549   551    1
   414   549   552    1
   415   553   554    1
   416   553   555    1
   417   553   556    1
   418   557   558    1
   419   557   559    1
   420   557   560    1
   421   561   562    1
   422   561   563    1
   423   561   564    1
   424   565   566    1
   425   565   567    1
   426   565   568    1
   427   569   570    1
   428   569   571    1
   429   569   572    1
   430   573   574    1
   431   573   575    1
   432   573   576    1
   433   577   578    1
   434   577   579    1
   435   577   580    1
   436   581   582    1
   437   581   583    1
   438   581   584    1
   439   585   586    1
   440   585   587    1
   441   585   588    1
   442   589   590    1
   443   589   591    1
   444   589   592    1
   445   593   594    1
   446   593   595    1
   447   593   596    1
   448   597   598    1
   449   597   599    1
   450   597   600    1
   451   601   602    1
   452   601   603    1
   453   601   604    1
   454   605   606    1
   455   605   607    1
   456   605   608    1
   457   609   610    1
   458   609   611    1
   459   609   612    1
   460   613   614    1
   461   613   615    1
   462   613   616    1
   463   617   618    1
   464   617   619    1
   465   617   620    1
   466   621   622    1
   467   621   623    1
   468   621   624    1
   469   625   626    1
   470   625   627    1
   471   625   628    1
   472   629   630    1
   473   629   631    1
   474   629   632    1
   475   633   634    1
   476   633   635    1
   477   633   636    1
   478   637   638    1
   479   637   639    1
   480   637   640    1
   481   641   642    1
   482   641   643    1
   483   641   644    1
   484   645   646    1
   485   645   647    1
   486   645   648    1
   487   649   650    1
   488   649   651    1
   489   649   652    1
   490   653   654    1
   491   653   655    1
   492   653   656    1
   493   657   658    1
   494   657   659    1
   495   657   660    1
   496   661   662    1
   497   661   663    1
   498   661   664    1
   499   665   666    1
   500   665   667    1
   501   665   668    1
   502   669   670    1
   503   669   671    1
   504   669   672    1
   505   673   674    1
   506   673   675    1
   507   673   676    1
   508   677   678    1
   509   677   679    1
   510   677   680    1
   511   681   682    1
   512   681   683    1
   513   681   684    1
   514   685   686    1
   515   685   687    1
   516   685   688    1
   517   689   690    1
   518   689   691    1
   519   689   692    1
   520   693   694    1
   521   693   695    1
   522   693   696    1
   523   697   698    1
   524   697   699    1
   525   697   700    1
   526   701   702    1
   527   701   703    1
   528   701   704    1
   529   705   706    1
   530   705   707    1
   531   705   708    1
   532   709   710    1
   533   709   711    1
   534   709   712    1
   535   713   714    1
   536   713   715    1
   537   713   716    1
   538   717   718    1
   539   717   719    1
   540   717   720    1
   541   721   722    1
   542   721   723    1
   543   721   724    1
   544   725   726    1
   545   725   727    1
   546   725   728    1
   547   729   730    1
   548   729   731    1
   549   729   732    1
   550   733   734    1
   551   733   735    1
   552   733   736    1
   553   737   738    1
   554   737   739    1
   555   737   740    1
   556   741   742    1
   557   741   743    1
   558   741   744    1
   559   745   746    1
   560   745   747    1
   561   745   748    1
   562   749   750    1
   563   749   751    1
   564   749   752    1
   565   753   754    1
   566   753   755    1
   567   753   756    1
   568   757   758    1
   569   757   759    1
   570   757   760    1
   571   761   762    1
   572   761   763    1
   573   761   764    1
   574   765   766    1
   575   765   767    1
   576   765   768    1
   577   769   770    1
   578   769   771    1
   579   769   772    1
   580   773   774    1
   581   773   775    1
   582   773   776    1
   583   777   778    1
   584   777   779    1
   585   777   780    1
   586   781   782    1
   587   781   783    1
   588   781   784    1
   589   785   786    1
   590   785   787    1
   591   785   788    1
   592   789   790    1
   593   789   791    1
   594   789   792    1
   595   793   794    1
   596   793   795    1
   597   793   796    1
   598   797   798    1
   599   797   799    1
   600   797   800    1
   601   801   802    1
   602   801   803    1
   603   801   804    1
   604   805   806    1
   605   805   807    1
   606   805   808    1
   607   809   810    1
   608   809   811    1
   609   809   812    1
   610   813   814    1
   611   813   815    1
   612   813   816    1
   613   817   818    1
   614   817   819    1
   615   817   820    1
   616   821   822    1
   617   821   823    1
   618   821   824    1
   619   825   826    1
   620   825   827    1
   621   825   828    1
   622   829   830    1
   623   829   831    1
   624   829   832    1
   625   833   834    1
   626   833   835    1
   627   833   836    1
   628   837   838    1
   629   837   839    1
   630   837   840    1
   631   841   842    1
   632   841   843    1
   633   841   844    1
   634   845   846    1
   635   845   847    1
   636   845   848    1
   637   849   850    1
   638   849   851    1
   639   849   852    1
   640   853   854    1
   641   853   855    1
   642   853   856    1
   643   857   858    1
   644   857   859    1
   645   857   860    1
   646   861   862    1
   647   861   863    1
   648   861   864    1
   649   865   866    1
   650   865   867    1
   651   865   868    1
   652   869   870    1
   653   869   871    1
   654   869   872    1
   655   873   874    1
   656   873   875    1
   657   873   876    1
   658   877   878    1
   659   877   879    1
   660   877   880    1
   661   881   882    1
   662   881   883    1
   663   881   884    1
   664   885   886    1
   665   885   887    1
   666   885   888    1
   667   889   890    1
   668   889   891    1
   669   889   892    1
   670   893   894    1
   671   893   895    1
   672   893   896    1
   673   897   898    1
   674   897   899    1
   675   897   900    1
   676   901   902    1
   677   901   903    1
   678   901   904    1
   679   905   906    1
   680   905   907    1
   681   905   908    1
   682   909   910    1
   683   909   911    1
   684   909   912    1
   685   913   914    1
   686   913   915    1
   687   913   916    1
   688   917   918    1
   689   917   919    1
   690   917   920    1
   691   921   922    1
   692   921   923    1
   693   921   924    1
   694   925   926    1
   695   925   927    1
   696   925   928    1
   697   929   930    1
   698   929   931    1
   699   929   932    1
   700   933   934    1
   701   933   935    1
   702   933   936    1
   703   937   938    1
   704   937   939    1
   705   937   940    1
   706   941   942    1
   707   941   943    1
   708   941   944    1
   709   945   946    1
   710   945   947    1
   711   945   948    1
   712   949   950    1
   713   949   951    1
   714   949   952    1
   715   953   954    1
   716   953   955    1
   717   953   956    1
   718   957   958    1
   719   957   959    1
   720   957   960    1
   721   961   962    1
   722   961   963    1
   723   961   964    1
   724   965   966    1
   725   965   967    1
   726   965   968    1
   727   969   970    1
   728   969   971    1
   729   969   972    1
   730   973   974    1
   731   973   975    1
   732   973   976    1
   733   977   978    1
   734   977   979    1
   735   977   980    1
   736   981   982    1
   737   981   983    1
   738   981   984    1
   739   985   986    1
   740   985   987    1
   741   985   988    1
   742   989   990    1
   743   989   991    1
   744   989   992    1
   745   993   994    1
   746   993   995    1
   747   993   996    1
   748   997   998    1
   749   997   999    1
   750   997  1000    1
   751  1001  1002    1
   752  1001  1003    1
   753  1001  1004    1
   754  1005  1006    1
   755  1005  1007    1
   756  1005  1008    1
   757  1009  1010    1
   758  1009  1011    1
   759  1009  1012    1
   760  1013  1014    1
   761  1013  1015    1
   762  1013  1016    1
   763  1017  1018    1
   764  1017  1019    1
   765  1017  1020    1
   766  1021  1022    1
   767  1021  1023    1
   768  1021  1024    1
   769  1025  1026    1
   770  1025  1027    1
   771  1025  1028    1
   772  1029  1030    1
   773  1029  1031    1
   774  1029  1032    1
   775  1033  1034    1
   776  1033  1035    1
   777  1033  1036    1
   778  1037  1038    1
   779  1037  1039    1
   780  1037  1040    1
   781  1041  1042    1
   782  1041  1043    1
   783  1041  1044    1
   784  1045  1046    1
   785  1045  1047    1
   786  1045  1048    1
   787  1049  1050    1
   788  1049  1051    1
   789  1049  1052    1
   790  1053  1054    1
   791  1053  1055    1
   792  1053  1056    1
   793  1057  1058    1
   794  1057  1059    1
   795  1057  1060    1
   796  1061  1062    1
   797  1061  1063    1
   798  1061  1064    1
   799  1065  1066    1
   800  1065  1067    1
   801  1065  1068    1
   802  1069  1070    1
   803  1069  1071    1
   804  1069  1072    1
   805  1073  1074    1
   806  1073  1075    1
   807  1073  1076    1
   808  1077  1078    1
   809  1077  1079    1
   810  1077  1080    1
   811  1081  1082    1
   812  1081  1083    1
   813  1081  1084    1
   814  1085  1086    1
   815  1085  1087    1
   816  1085  1088    1
   817  1089  1090    1
   818  1089  1091    1
   819  1089  1092    1
   820  1093  1094    1
   821  1093  1095    1
   822  1093  1096    1
   823  1097  1098    1
   824  1097  1099    1
   825  1097  1100    1
   826  1101  1102    1
   827  1101  1103    1
   828  1101  1104    1
   829  1105  1106    1
   830  1105  1107    1
   831  1105  1108    1
   832  1109  1110    1
   833  1109  1111    1
   834  1109  1112    1
   835  1113  1114    1
   836  1113  1115    1
   837  1113  1116    1
   838  1117  1118    1
   839  1117  1119    1
   840  1117  1120    1
   841  1121  1122    1
   842  1121  1123    1
   843  1121  1124    1
   844  1125  1126    1
   845  1125  1127    1
   846  1125  1128    1
   847  1129  1130    1
   848  1129  1131    1
   849  1129  1132    1
   850  1133  1134    1
   851  1133  1135    1
   852  1133  1136    1
   853  1137  1138    1
   854  1137  1139    1
   855  1137  1140    1
   856  1141  1142    1
   857  1141  1143    1
   858  1141  1144    1
   859  1145  1146    1
   860  1145  1147    1
   861  1145  1148    1
   862  1149  1150    1
   863  1149  1151    1
   864  1149  1152    1
   865  1153  1154    1
   866  1153  1155    1
   867  1153  1156    1
   868  1157  1158    1
   869  1157  1159    1
   870  1157  1160    1
   871  1161  1162    1
   872  1161  1163    1
   873  1161  1164    1
   874  1165  1166    1
   875  1165  1167    1
   876  1165  1168    1
   877  1169  1170    1
   878  1169  1171    1
   879  1169  1172    1
   880  1173  1174    1
   881  1173  1175    1
   882  1173  1176    1
   883  1177  1178    1
   884  1177  1179    1
   885  1177  1180    1
   886  1181  1182    1
   887  1181  1183    1
   888  1181  1184    1
   889  1185  1186    1
   890  1185  1187    1
   891  1185  1188    1
   892  1189  1190    1
   893  1189  1191    1
   894  1189  1192    1
   895  1193  1194    1
   896  1193  1195    1
   897  1193  1196    1
   898  1197  1198    1
   899  1197  1199    1
   900  1197  1200    1
   901  1201  1202    1
   902  1201  1203    1
   903  1201  1204    1
   904  1205  1206    1
   905  1205  1207    1
   906  1205  1208    1
   907  1209  1210    1
   908  1209  1211    1
   909  1209  1212    1
   910  1213  1214    1
   911  1213  1215    1
   912  1213  1216    1
   913  1217  1218    1
   914  1217  1219    1
   915  1217  1220    1
   916  1221  1222    1
   917  1221  1223    1
   918  1221  1224    1
   919  1225  1226    1
   920  1225  1227    1
   921  1225  1228    1
   922  1229  1230    1
   923  1229  1231    1
   924  1229  1232    1
   925  1233  1234    1
   926  1233  1235    1
   927  1233  1236    1
   928  1237  1238    1
   929  1237  1239    1
   930  1237  1240    1
   931  1241  1242    1
   932  1241  1243    1
   933  1241  1244    1
   934  1245  1246    1
   935  1245  1247    1
   936  1245  1248    1
   937  1249  1250    1
   938  1249  1251    1
   939  1249  1252    1
   940  1253  1254    1
   941  1253  1255    1
   942  1253  1256    1
   943  1257  1258    1
   944  1257  1259    1
   945  1257  1260    1
   946  1261  1262    1
   947  1261  1263    1
   948  1261  1264    1
   949  1265  1266    1
   950  1265  1267    1
   951  1265  1268    1
   952  1269  1270    1
   953  1269  1271    1
   954  1269  1272    1
   955  1273  1274    1
   956  1273  1275    1
   957  1273  1276    1
   958  1277  1278    1
   959  1277  1279    1
   960  1277  1280    1
   961  1281  1282    1
   962  1281  1283    1
   963  1281  1284    1
   964  1285  1286    1
   965  1285  1287    1
   966  1285  1288    1
   967  1289  1290    1
   968  1289  1291    1
   969  1289  1292    1
   970  1293  1294    1
   971  1293  1295    1
   972  1293  1296    1
   973  1297  1298    1
   974  1297  1299    1
   975  1297  1300    1
   976  1301  1302    1
   977  1301  1303    1
   978  1301  1304    1
   979  1305  1306    1
   980  1305  1307    1
   981  1305  1308    1
   982  1309  1310    1
   983  1309  1311    1
   984  1309  1312    1
   985  1313  1314    1
   986  1313  1315    1
   987  1313  1316    1
   988  1317  1318    1
   989  1317  1319    1
   990  1317  1320    1
   991  1321  1322    1
   992  1321  1323    1
   993  1321  1324    1
   994  1325  1326    1
   995  1325  1327    1
   996  1325  1328    1
   997  1329  1330    1
   998  1329  1331    1
   999  1329  1332    1
  1000  1333  1334    1
  1001  1333  1335    1
  1002  1333  1336    1
  1003  1337  1338    1
  1004  1337  1339    1
  1005  1337  1340    1
  1006  1341  1342    1
  1007  1341  1343    1
  1008  1341  1344    1
  1009  1345  1346    1
  1010  1345  1347    1
  1011  1345  1348    1
  1012  1349  1350    1
  1013  1349  1351    1
  1014  1349  1352    1
  1015  1353  1354    1
  1016  1353  1355    1
  1017  1353  1356    1
  1018  1357  1358    1
  1019  1357  1359    1
  1020  1357  1360    1
  1021  1361  1362    1
  1022  1361  1363    1
  1023  1361  1364    1
  1024  1365  1366    1
  1025  1365  1367    1
  1026  1365  1368    1
  1027  1369  1370    1
  1028  1369  1371    1
  1029  1369  1372    1
  1030  1373  1374    1
  1031  1373  1375    1
  1032  1373  1376    1
  1033  1377  1378    1
  1034  1377  1379    1
  1035  1377  1380    1
  1036  1381  1382    1
  1037  1381  1383    1
  1038  1381  1384    1
  1039  1385  1386    1
  1040  1385  1387    1
  1041  1385  1388    1
  1042  1389  1390    1
  1043  1389  1391    1
  1044  1389  1392    1
  1045  1393  1394    1
  1046  1393  1395    1
  1047  1393  1396    1
  1048  1397  1398    1
  1049  1397  1399    1
  1050  1397  1400    1
  1051  1401  1402    1
  1052  1401  1403    1
  1053  1401  1404    1
  1054  1405  1406    1
  1055  1405  1407    1
  1056  1405  1408    1
  1057  1409  1410    1
  1058  1409  1411    1
  1059  1409  1412    1
  1060  1413  1414    1
  1061  1413  1415    1
  1062  1413  1416    1
  1063  1417  1418    1
  1064  1417  1419    1
  1065  1417  1420    1
  1066  1421  1422    1
  1067  1421  1423    1
  1068  1421  1424    1
  1069  1425  1426    1
  1070  1425  1427    1
  1071  1425  1428    1
  1072  1429  1430    1
  1073  1429  1431    1
  1074  1429  1432    1
  1075  1433  1434    1
  1076  1433  1435    1
  1077  1433  1436    1
  1078  1437  1438    1
  1079  1437  1439    1
  1080  1437  1440    1
  1081  1441  1442    1
  1082  1441  1443    1
  1083  1441  1444    1
  1084  1445  1446    1
  1085  1445  1447    1
  1086  1445  1448    1
  1087  1449  1450    1
  1088  1449  1451    1
  1089  1449  1452    1
  1090  1453  1454    1
  1091  1453  1455    1
  1092  1453  1456    1
  1093  1457  1458    1
  1094  1457  1459    1
  1095  1457  1460    1
  1096  1461  1462    1
  1097  1461  1463    1
  1098  1461  1464    1
  1099  1465  1466    1
  1100  1465  1467    1
  1101  1465  1468    1
  1102  1469  1470    1
  1103  1469  1471    1
  1104  1469  1472    1
  1105  1473  1474    1
  1106  1473  1475    1
  1107  1473  1476    1
  1108  1477  1478    1
  1109  1477  1479    1
  1110  1477  1480    1
  1111  1481  1482    1
  1112  1481  1483    1
  1113  1481  1484    1
  1114  1485  1486    1
  1115  1485  1487    1
  1116  1485  1488    1
  1117  1489  1490    1
  1118  1489  1491    1
  1119  1489  1492    1
  1120  1493  1494    1
  1121  1493  1495    1
  1122  1493  1496    1
  1123  1497  1498    1
  1124  1497  1499    1
  1125  1497  1500    1
  1126  1501  1502    1
  1127  1501  1503    1
  1128  1501  1504    1
  1129  1505  1506    1
  1130  1505  1507    1
  1131  1505  1508    1
  1132  1509  1510    1
  1133  1509  1511    1
  1134  1509  1512    1
  1135  1513  1514    1
  1136  1513  1515    1
  1137  1513  1516    1
  1138  1517  1518    1
  1139  1517  1519    1
  1140  1517  1520    1
  1141  1521  1522    1
  1142  1521  1523    1
  1143  1521  1524    1
  1144  1525  1526    1
  1145  1525  1527    1
  1146  1525  1528    1
  1147  1529  1530    1
  1148  1529  1531    1
  1149  1529  1532    1
  1150  1533  1534    1
  1151  1533  1535    1
  1152  1533  1536    1
  1153  1537  1538    1
  1154  1537  1539    1
  1155  1537  1540    1
  1156  1541  1542    1
  1157  1541  1543    1
  1158  1541  1544    1
  1159  1545  1546    1
  1160  1545  1547    1
  1161  1545  1548    1
  1162  1549  1550    1
  1163  1549  1551    1
  1164  1549  1552    1
  1165  1553  1554    1
  1166  1553  1555    1
  1167  1553  1556    1
  1168  1557  1558    1
  1169  1557  1559    1
  1170  1557  1560    1
  1171  1561  1562    1
  1172  1561  1563    1
  1173  1561  1564    1
  1174  1565  1566    1
  1175  1565  1567    1
  1176  1565  1568    1
  1177  1569  1570    1
  1178  1569  1571    1
  1179  1569  1572    1
  1180  1573  1574    1
  1181  1573  1575    1
  1182  1573  1576    1
  1183  1577  1578    1
  1184  1577  1579    1
  1185  1577  1580    1
  1186  1581  1582    1
  1187  1581  1583    1
  1188  1581  1584    1
  1189  1585  1586    1
  1190  1585  1587    1
  1191  1585  1588    1
  1192  1589  1590    1
  1193  1589  1591    1
  1194  1589  1592    1
  1195  1593  1594    1
  1196  1593  1595    1
  1197  1593  1596    1
  1198  1597  1598    1
  1199  1597  1599    1
  1200  1597  1600    1
  1201  1601  1602    1
  1202  1601  1603    1
  1203  1601  1604    1
  1204  1605  1606    1
  1205  1605  1607    1
  1206  1605  1608    1
  1207  1609  1610    1
  1208  1609  1611    1
  1209  1609  1612    1
  1210  1613  1614    1
  1211  1613  1615    1
  1212  1613  1616    1
  1213  1617  1618    1
  1214  1617  1619    1
  1215  1617  1620    1
  1216  1621  1622    1
  1217  1621  1623    1
  1218  1621  1624    1
  1219  1625  1626    1
  1220  1625  1627    1
  1221  1625  1628    1
  1222  1629  1630    1
  1223  1629  1631    1
  1224  1629  1632    1
  1225  1633  1634    1
  1226  1633  1635    1
  1227  1633  1636    1
  1228  1637  1638    1
  1229  1637  1639    1
  1230  1637  1640    1
  1231  1641  1642    1
  1232  1641  1643    1
  1233  1641  1644    1
  1234  1645  1646    1
  1235  1645  1647    1
  1236  1645  1648    1
  1237  1649  1650    1
  1238  1649  1651    1
  1239  1649  1652    1
  1240  1653  1654    1
  1241  1653  1655    1
  1242  1653  1656    1
  1243  1657  1658    1
  1244  1657  1659    1
  1245  1657  1660    1
  1246  1661  1662    1
  1247  1661  1663    1
  1248  1661  1664    1
  1249  1665  1666    1
  1250  1665  1667    1
  1251  1665  1668    1
  1252  1669  1670    1
  1253  1669  1671    1
  1254  1669  1672    1
  1255  1673  1674    1
  1256  1673  1675    1
  1257  1673  1676    1
  1258  1677  1678    1
  1259  1677  1679    1
  1260  1677  1680    1
  1261  1681  1682    1
  1262  1681  1683    1
  1263  1681  1684    1
  1264  1685  1686    1
  1265  1685  1687    1
  1266  1685  1688    1
  1267  1689  1690    1
  1268  1689  1691    1
  1269  1689  1692    1
  1270  1693  1694    1
  1271  1693  1695    1
  1272  1693  1696    1
  1273  1697  1698    1
  1274  1697  1699    1
  1275  1697  1700    1
  1276  1701  1702    1
  1277  1701  1703    1
  1278  1701  1704    1
  1279  1705  1706    1
  1280  1705  1707    1
  1281  1705  1708    1
  1282  1709  1710    1
  1283  1709  1711    1
  1284  1709  1712    1
  1285  1713  1714    1
  1286  1713  1715    1
  1287  1713  1716    1
  1288  1717  1718    1
  1289  1717  1719    1
  1290  1717  1720    1
  1291  1721  1722    1
  1292  1721  1723    1
  1293  1721  1724    1
  1294  1725  1726    1
  1295  1725  1727    1
  1296  1725  1728    1
  1297  1729  1730    1
  1298  1729  1731    1
  1299  1729  1732    1
  1300  1733  1734    1
  1301  1733  1735    1
  1302  1733  1736    1
  1303  1737  1738    1
  1304  1737  1739    1
  1305  1737  1740    1
  1306  1741  1742    1
  1307  1741  1743    1
  1308  1741  1744    1
  1309  1745  1746    1
  1310  1745  1747    1
  1311  1745  1748    1
  1312  1749  1750    1
  1313  1749  1751    1
  1314  1749  1752    1
  1315  1753  1754    1
  1316  1753  1755    1
  1317  1753  1756    1
  1318  1757  1758    1
  1319  1757  1759    1
  1320  1757  1760    1
  1321  1761  1762    1
  1322  1761  1763    1
  1323  1761  1764    1
  1324  1765  1766    1
  1325  1765  1767    1
  1326  1765  1768    1
  1327  1769  1770    1
  1328  1769  1771    1
  1329  1769  1772    1
  1330  1773  1774    1
  1331  1773  1775    1
  1332  1773  1776    1
  1333  1777  1778    1
  1334  1777  1779    1
  1335  1777  1780    1
  1336  1781  1782    1
  1337  1781  1783    1
  1338  1781  1784    1
  1339  1785  1786    1
  1340  1785  1787    1
  1341  1785  1788    1
  1342  1789  1790    1
  1343  1789  1791    1
  1344  1789  1792    1
  1345  1793  1794    1
  1346  1793  1795    1
  1347  1793  1796    1
  1348  1797  1798    1
  1349  1797  1799    1
  1350  1797  1800    1
  1351  1801  1802    1
  1352  1801  1803    1
  1353  1801  1804    1
  1354  1805  1806    1
  1355  1805  1807    1
  1356  1805  1808    1
  1357  1809  1810    1
  1358  1809  1811    1
  1359  1809  1812    1
  1360  1813  1814    1
  1361  1813  1815    1
  1362  1813  1816    1
  1363  1817  1818    1
  1364  1817  1819    1
  1365  1817  1820    1
  1366  1821  1822    1
  1367  1821  1823    1
  1368  1821  1824    1
  1369  1825  1826    1
  1370  1825  1827    1
  1371  1825  1828    1
  1372  1829  1830    1
  1373  1829  1831    1
  1374  1829  1832    1
  1375  1833  1834    1
  1376  1833  1835    1
  1377  1833  1836    1
  1378  1837  1838    1
  1379  1837  1839    1
  1380  1837  1840    1
  1381  1841  1842    1
  1382  1841  1843    1
  1383  1841  1844    1
  1384  1845  1846    1
  1385  1845  1847    1
  1386  1845  1848    1
  1387  1849  1850    1
  1388  1849  1851    1
  1389  1849  1852    1
  1390  1853  1854    1
  1391  1853  1855    1
  1392  1853  1856    1
  1393  1857  1858    1
  1394  1857  1859    1
  1395  1857  1860    1
  1396  1861  1862    1
  1397  1861  1863    1
  1398  1861  1864    1
  1399  1865  1866    1
  1400  1865  1867    1
  1401  1865  1868    1
  1402  1869  1870    1
  1403  1869  1871    1
  1404  1869  1872    1
  1405  1873  1874    1
  1406  1873  1875    1
  1407  1873  1876    1
  1408  1877  1878    1
  1409  1877  1879    1
  1410  1877  1880    1
  1411  1881  1882    1
  1412  1881  1883    1
  1413  1881  1884    1
  1414  1885  1886    1
  1415  1885  1887    1
  1416  1885  1888    1
  1417  1889  1890    1
  1418  1889  1891    1
  1419  1889  1892    1
  1420  1893  1894    1
  1421  1893  1895    1
  1422  1893  1896    1
  1423  1897  1898    1
  1424  1897  1899    1
  1425  1897  1900    1
  1426  1901  1902    1
  1427  1901  1903    1
  1428  1901  1904    1
  1429  1905  1906    1
  1430  1905  1907    1
  1431  1905  1908    1
  1432  1909  1910    1
  1433  1909  1911    1
  1434  1909  1912    1
  1435  1913  1914    1
  1436  1913  1915    1
  1437  1913  1916    1
  1438  1917  1918    1
  1439  1917  1919    1
  1440  1917  1920    1
  1441  1921  1922    1
  1442  1921  1923    1
  1443  1921  1924    1
  1444  1925  1926    1
  1445  1925  1927    1
  1446  1925  1928    1
  1447  1929  1930    1
  1448  1929  1931    1
  1449  1929  1932    1
  1450  1933  1934    1
  1451  1933  1935    1
  1452  1933  1936    1
  1453  1937  1938    1
  1454  1937  1939    1
  1455  1937  1940    1
  1456  1941  1942    1
  1457  1941  1943    1
  1458  1941  1944    1
  1459  1945  1946    1
  1460  1945  1947    1
  1461  1945  1948    1
  1462  1949  1950    1
  1463  1949  1951    1
  1464  1949  1952    1
  1465  1953  1954    1
  1466  1953  1955    1
  1467  1953  1956    1
  1468  1957  1958    1
  1469  1957  1959    1
  1470  1957  1960    1
  1471  1961  1962    1
  1472  1961  1963    1
  1473  1961  1964    1
  1474  1965  1966    1
  1475  1965  1967    1
  1476  1965  1968    1
  1477  1969  1970    1
  1478  1969  1971    1
  1479  1969  1972    1
  1480  1973  1974    1
  1481  1973  1975    1
  1482  1973  1976    1
  1483  1977  1978    1
  1484  1977  1979    1
  1485  1977  1980    1
  1486  1981  1982    1
  1487  1981  1983    1
  1488  1981  1984    1
  1489  1985  1986    1
  1490  1985  1987    1
  1491  1985  1988    1
  1492  1989  1990    1
  1493  1989  1991    1
  1494  1989  1992    1
  1495  1993  1994    1
  1496  1993  1995    1
  1497  1993  1996    1
  1498  1997  1998    1
  1499  1997  1999    1
  1500  1997  2000    1
  1501  2001  2002    1
  1502  2001  2003    1
  1503  2001  2004    1
  1504  2005  2006    1
  1505  2005  2007    1
  1506  2005  2008    1
  1507  2009  2010    1
  1508  2009  2011    1
  1509  2009  2012    1
  1510  2013  2014    1
  1511  2013  2015    1
  1512  2013  2016    1
  1513  2017  2018    1
  1514  2017  2019    1
  1515  2017  2020    1
  1516  2021  2022    1
  1517  2021  2023    1
  1518  2021  2024    1
  1519  2025  2026    1
  1520  2025  2027    1
  1521  2025  2028    1
  1522  2029  2030    1
  1523  2029  2031    1
  1524  2029  2032    1
  1525  2033  2034    1
  1526  2033  2035    1
  1527  2033  2036    1
  1528  2037  2038    1
  1529  2037  2039    1
  1530  2037  2040    1
  1531  2041  2042    1
  1532  2041  2043    1
  1533  2041  2044    1
  1534  2045  2046    1
  1535  2045  2047    1
  1536  2045  2048    1
  1537  2049  2050    1
  1538  2049  2051    1
  1539  2049  2052    1
  1540  2053  2054    1
  1541  2053  2055    1
  1542  2053  2056    1
  1543  2057  2058    1
  1544  2057  2059    1
  1545  2057  2060    1
  1546  2061  2062    1
  1547  2061  2063    1
  1548  2061  2064    1
  1549  2065  2066    1
  1550  2065  2067    1
  1551  2065  2068    1
  1552  2069  2070    1
  1553  2069  2071    1
  1554  2069  2072    1
  1555  2073  2074    1
  1556  2073  2075    1
  1557  2073  2076    1
  1558  2077  2078    1
  1559  2077  2079    1
  1560  2077  2080    1
  1561  2081  2082    1
  1562  2081  2083    1
  1563  2081  2084    1
  1564  2085  2086    1
  1565  2085  2087    1
  1566  2085  2088    1
  1567  2089  2090    1
  1568  2089  2091    1
  1569  2089  2092    1
  1570  2093  2094    1
  1571  2093  2095    1
  1572  2093  2096    1
  1573  2097  2098    1
  1574  2097  2099    1
  1575  2097  2100    1
  1576  2101  2102    1
  1577  2101  2103    1
  1578  2101  2104    1
  1579  2105  2106    1
  1580  2105  2107    1
  1581  2105  2108    1
  1582  2109  2110    1
  1583  2109  2111    1
  1584  2109  2112    1
  1585  2113  2114    1
  1586  2113  2115    1
  1587  2113  2116    1
  1588  2117  2118    1
  1589  2117  2119    1
  1590  2117  2120    1
  1591  2121  2122    1
  1592  2121  2123    1
  1593  2121  2124    1
  1594  2125  2126    1
  1595  2125  2127    1
  1596  2125  2128    1
  1597  2129  2130    1
  1598  2129  2131    1
  1599  2129  2132    1
  1600  2133  2134    1
  1601  2133  2135    1
  1602  2133  2136    1
  1603  2137  2138    1
  1604  2137  2139    1
  1605  2137  2140    1
  1606  2141  2142    1
  1607  2141  2143    1
  1608  2141  2144    1
  1609  2145  2146    1
  1610  2145  2147    1
  1611  2145  2148    1
  1612  2149  2150    1
  1613  2149  2151    1
  1614  2149  2152    1
  1615  2153  2154    1
  1616  2153  2155    1
  1617  2153  2156    1
  1618  2157  2158    1
  1619  2157  2159    1
  1620  2157  2160    1
  1621  2161  2162    1
  1622  2161  2163    1
  1623  2161  2164    1
  1624  2165  2166    1
  1625  2165  2167    1
  1626  2165  2168    1
  1627  2169  2170    1
  1628  2169  2171    1
  1629  2169  2172    1
  1630  2173  2174    1
  1631  2173  2175    1
  1632  2173  2176    1
  1633  2177  2178    1
  1634  2177  2179    1
  1635  2177  2180    1
  1636  2181  2182    1
  1637  2181  2183    1
  1638  2181  2184    1
  1639  2185  2186    1
  1640  2185  2187    1
  1641  2185  2188    1
  1642  2189  2190    1
  1643  2189  2191    1
  1644  2189  2192    1
  1645  2193  2194    1
  1646  2193  2195    1
  1647  2193  2196    1
  1648  2197  2198    1
  1649  2197  2199    1
  1650  2197  2200    1
  1651  2201  2202    1
  1652  2201  2203    1
  1653  2201  2204    1
  1654  2205  2206    1
  1655  2205  2207    1
  1656  2205  2208    1
  1657  2209  2210    1
  1658  2209  2211    1
  1659  2209  2212    1
  1660  2213  2214    1
  1661  2213  2215    1
  1662  2213  2216    1
  1663  2217  2218    1
  1664  2217  2219    1
  1665  2217  2220    1
  1666  2221  2222    1
  1667  2221  2223    1
  1668  2221  2224    1
  1669  2225  2226    1
  1670  2225  2227    1
  1671  2225  2228    1
  1672  2229  2230    1
  1673  2229  2231    1
  1674  2229  2232    1
  1675  2233  2234    1
  1676  2233  2235    1
  1677  2233  2236    1
  1678  2237  2238    1
  1679  2237  2239    1
  1680  2237  2240    1
  1681  2241  2242    1
  1682  2241  2243    1
  1683  2241  2244    1
  1684  2245  2246    1
  1685  2245  2247    1
  1686  2245  2248    1
  1687  2249  2250    1
  1688  2249  2251    1
  1689  2249  2252    1
  1690  2253  2254    1
  1691  2253  2255    1
  1692  2253  2256    1
  1693  2257  2258    1
  1694  2257  2259    1
  1695  2257  2260    1
  1696  2261  2262    1
  1697  2261  2263    1
  1698  2261  2264    1
  1699  2265  2266    1
  1700  2265  2267    1
  1701  2265  2268    1
  1702  2269  2270    1
  1703  2269  2271    1
  1704  2269  2272    1
  1705  2273  2274    1
  1706  2273  2275    1
  1707  2273  2276    1
  1708  2277  2278    1
  1709  2277  2279    1
  1710  2277  2280    1
  1711  2281  2282    1
  1712  2281  2283    1
  1713  2281  2284    1
  1714  2285  2286    1
  1715  2285  2287    1
  1716  2285  2288    1
  1717  2289  2290    1
  1718  2289  2291    1
  1719  2289  2292    1
  1720  2293  2294    1
  1721  2293  2295    1
  1722  2293  2296    1
  1723  2297  2298    1
  1724  2297  2299    1
  1725  2297  2300    1
  1726  2301  2302    1
  1727  2301  2303    1
  1728  2301  2304    1
  1729  2305  2306    1
  1730  2305  2307    1
  1731  2305  2308    1
  1732  2309  2310    1
  1733  2309  2311    1
  1734  2309  2312    1
  1735  2313  2314    1
  1736  2313  2315    1
  1737  2313  2316    1
  1738  2317  2318    1
  1739  2317  2319    1
  1740  2317  2320    1
  1741  2321  2322    1
  1742  2321  2323    1
  1743  2321  2324    1
  1744  2325  2326    1
  1745  2325  2327    1
  1746  2325  2328    1
  1747  2329  2330    1
  1748  2329  2331    1
  1749  2329  2332    1
  1750  2333  2334    1
  1751  2333  2335    1
  1752  2333  2336    1
  1753  2337  2338    1
  1754  2337  2339    1
  1755  2337  2340    1
  1756  2341  2342    1
  1757  2341  2343    1
  1758  2341  2344    1
  1759  2345  2346    1
  1760  2345  2347    1
  1761  2345  2348    1
  1762  2349  2350    1
  1763  2349  2351    1
  1764  2349  2352    1
  1765  2353  2354    1
  1766  2353  2355    1
  1767  2353  2356    1
  1768  2357  2358    1
  1769  2357  2359    1
  1770  2357  2360    1
  1771  2361  2362    1
  1772  2361  2363    1
  1773  2361  2364    1
  1774  2365  2366    1
  1775  2365  2367    1
  1776  2365  2368    1
  1777  2369  2370    1
  1778  2369  2371    1
  1779  2369  2372    1
  1780  2373  2374    1
  1781  2373  2375    1
  1782  2373  2376    1
  1783  2377  2378    1
  1784  2377  2379    1
  1785  2377  2380    1
  1786  2381  2382    1
  1787  2381  2383    1
  1788  2381  2384    1
  1789  2385  2386    1
  1790  2385  2387    1
  1791  2385  2388    1
  1792  2389  2390    1
  1793  2389  2391    1
  1794  2389  2392    1
  1795  2393  2394    1
  1796  2393  2395    1
  1797  2393  2396    1
  1798  2397  2398    1
  1799  2397  2399    1
  1800  2397  2400    1
  1801  2401  2402    1
  1802  2401  2403    1
  1803  2401  2404    1
  1804  2405  2406    1
  1805  2405  2407    1
  1806  2405  2408    1
  1807  2409  2410    1
  1808  2409  2411    1
  1809  2409  2412    1
  1810  2413  2414    1
  1811  2413  2415    1
  1812  2413  2416    1
  1813  2417  2418    1
  1814  2417  2419    1
  1815  2417  2420    1
  1816  2421  2422    1
  1817  2421  2423    1
  1818  2421  2424    1
  1819  2425  2426    1
  1820  2425  2427    1
  1821  2425  2428    1
  1822  2429  2430    1
  1823  2429  2431    1
  1824  2429  2432    1
  1825  2433  2434    1
  1826  2433  2435    1
  1827  2433  2436    1
  1828  2437  2438    1
  1829  2437  2439    1
  1830  2437  2440    1
  1831  2441  2442    1
  1832  2441  2443    1
  1833  2441  2444    1
  1834  2445  2446    1
  1835  2445  2447    1
  1836  2445  2448    1
  1837  2449  2450    1
  1838  2449  2451    1
  1839  2449  2452    1
  1840  2453  2454    1
  1841  2453  2455    1
  1842  2453  2456    1
  1843  2457  2458    1
  1844  2457  2459    1
  1845  2457  2460    1
  1846  2461  2462    1
  1847  2461  2463    1
  1848  2461  2464    1
  1849  2465  2466    1
  1850  2465  2467    1
  1851  2465  2468    1
  1852  2469  2470    1
  1853  2469  2471    1
  1854  2469  2472    1
  1855  2473  2474    1
  1856  2473  2475    1
  1857  2473  2476    1
  1858  2477  2478    1
  1859  2477  2479    1
  1860  2477  2480    1
  1861  2481  2482    1
  1862  2481  2483    1
  1863  2481  2484    1
  1864  2485  2486    1
  1865  2485  2487    1
  1866  2485  2488    1
  1867  2489  2490    1
  1868  2489  2491    1
  1869  2489  2492    1
  1870  2493  2494    1
  1871  2493  2495    1
  1872  2493  2496    1
  1873  2497  2498    1
  1874  2497  2499    1
  1875  2497  2500    1
  1876  2501  2502    1
  1877  2501  2503    1
  1878  2501  2504    1
  1879  2505  2506    1
  1880  2505  2507    1
  1881  2505  2508    1
  1882  2509  2510    1
  1883  2509  2511    1
  1884  2509  2512    1
  1885  2513  2514    1
  1886  2513  2515    1
  1887  2513  2516    1
  1888  2517  2518    1
  1889  2517  2519    1
  1890  2517  2520    1
  1891  2521  2522    1
  1892  2521  2523    1
  1893  2521  2524    1
  1894  2525  2526    1
  1895  2525  2527    1
  1896  2525  2528    1
  1897  2529  2530    1
  1898  2529  2531    1
  1899  2529  2532    1
  1900  2533  2534    1
  1901  2533  2535    1
  1902  2533  2536    1
  1903  2537  2538    1
  1904  2537  2539    1
  1905  2537  2540    1
  1906  2541  2542    1
  1907  2541  2543    1
  1908  2541  2544    1
  1909  2545  2546    1
  1910  2545  2547    1
  1911  2545  2548    1
  1912  2549  2550    1
  1913  2549  2551    1
  1914  2549  2552    1
  1915  2553  2554    1
  1916  2553  2555    1
  1917  2553  2556    1
  1918  2557  2558    1
  1919  2557  2559    1
  1920  2557  2560    1
  1921  2561  2562    1
  1922  2561  2563    1
  1923  2561  2564    1
  1924  2565  2566    1
  1925  2565  2567    1
  1926  2565  2568    1
  1927  2569  2570    1
  1928  2569  2571    1
  1929  2569  2572    1
  1930  2573  2574    1
  1931  2573  2575    1
  1932  2573  2576    1
  1933  2577  2578    1
  1934  2577  2579    1
  1935  2577  2580    1
  1936  2581  2582    1
  1937  2581  2583    1
  1938  2581  2584    1
  1939  2585  2586    1
  1940  2585  2587    1
  1941  2585  2588    1
  1942  2589  2590    1
  1943  2589  2591    1
  1944  2589  2592    1
  1945  2593  2594    1
  1946  2593  2595    1
  1947  2593  2596    1
  1948  2597  2598    1
  1949  2597  2599    1
  1950  2597  2600    1
  1951  2601  2602    1
  1952  2601  2603    1
  1953  2601  2604    1
  1954  2605  2606    1
  1955  2605  2607    1
  1956  2605  2608    1
  1957  2609  2610    1
  1958  2609  2611    1
  1959  2609  2612    1
  1960  2613  2614    1
  1961  2613  2615    1
  1962  2613  2616    1
  1963  2617  2618    1
  1964  2617  2619    1
  1965  2617  2620    1
  1966  2621  2622    1
  1967  2621  2623    1
  1968  2621  2624    1
  1969  2625  2626    1
  1970  2625  2627    1
  1971  2625  2628    1
  1972  2629  2630    1
  1973  2629  2631    1
  1974  2629  2632    1
  1975  2633  2634    1
  1976  2633  2635    1
  1977  2633  2636    1
  1978  2637  2638    1
  1979  2637  2639    1
  1980  2637  2640    1
  1981  2641  2642    1
  1982  2641  2643    1
  1983  2641  2644    1
  1984  2645  2646    1
  1985  2645  2647    1
  1986  2645  2648    1
  1987  2649  2650    1
  1988  2649  2651    1
  1989  2649  2652    1
  1990  2653  2654    1
  1991  2653  2655    1
  1992  2653  2656    1
  1993  2657  2658    1
  1994  2657  2659    1
  1995  2657  2660    1
  1996  2661  2662    1
  1997  2661  2663    1
  1998  2661  2664    1
  1999  2665  2666    1
  2000  2665  2667    1
  2001  2665  2668    1
  2002  2669  2670    1
  2003  2669  2671    1
  2004  2669  2672    1
  2005  2673  2674    1
  2006  2673  2675    1
  2007  2673  2676    1
  2008  2677  2678    1
  2009  2677  2679    1
  2010  2677  2680    1
  2011  2681  2682    1
  2012  2681  2683    1
  2013  2681  2684    1
  2014  2685  2686    1
  2015  2685  2687    1
  2016  2685  2688    1
  2017  2689  2690    1
  2018  2689  2691    1
  2019  2689  2692    1
  2020  2693  2694    1
  2021  2693  2695    1
  2022  2693  2696    1
  2023  2697  2698    1
  2024  2697  2699    1
  2025  2697  2700    1
  2026  2701  2702    1
  2027  2701  2703    1
  2028  2701  2704    1
  2029  2705  2706    1
  2030  2705  2707    1
  2031  2705  2708    1
  2032  2709  2710    1
  2033  2709  2711    1
  2034  2709  2712    1
  2035  2713  2714    1
  2036  2713  2715    1
  2037  2713  2716    1
  2038  2717  2718    1
  2039  2717  2719    1
  2040  2717  2720    1
  2041  2721  2722    1
  2042  2721  2723    1
  2043  2721  2724    1
  2044  2725  2726    1
  2045  2725  2727    1
  2046  2725  2728    1
  2047  2729  2730    1
  2048  2729  2731    1
  2049  2729  2732    1
  2050  2733  2734    1
  2051  2733  2735    1
  2052  2733  2736    1
  2053  2737  2738    1
  2054  2737  2739    1
  2055  2737  2740    1
  2056  2741  2742    1
  2057  2741  2743    1
  2058  2741  2744    1
  2059  2745  2746    1
  2060  2745  2747    1
  2061  2745  2748    1
  2062  2749  2750    1
  2063  2749  2751    1
  2064  2749  2752    1
  2065  2753  2754    1
  2066  2753  2755    1
  2067  2753  2756    1
  2068  2757  2758    1
  2069  2757  2759    1
  2070  2757  2760    1
  2071  2761  2762    1
  2072  2761  2763    1
  2073  2761  2764    1
  2074  2765  2766    1
  2075  2765  2767    1
  2076  2765  2768    1
  2077  2769  2770    1
  2078  2769  2771    1
  2079  2769  2772    1
  2080  2773  2774    1
  2081  2773  2775    1
  2082  2773  2776    1
  2083  2777  2778    1
  2084  2777  2779    1
  2085  2777  2780    1
  2086  2781  2782    1
  2087  2781  2783    1
  2088  2781  2784    1
  2089  2785  2786    1
  2090  2785  2787    1
  2091  2785  2788    1
  2092  2789  2790    1
  2093  2789  2791    1
  2094  2789  2792    1
  2095  2793  2794    1
  2096  2793  2795    1
  2097  2793  2796    1
  2098  2797  2798    1
  2099  2797  2799    1
  2100  2797  2800    1
  2101  2801  2802    1
  2102  2801  2803    1
  2103  2801  2804    1
  2104  2805  2806    1
  2105  2805  2807    1
  2106  2805  2808    1
  2107  2809  2810    1
  2108  2809  2811    1
  2109  2809  2812    1
  2110  2813  2814    1
  2111  2813  2815    1
  2112  2813  2816    1
  2113  2817  2818    1
  2114  2817  2819    1
  2115  2817  2820    1
  2116  2821  2822    1
  2117  2821  2823    1
  2118  2821  2824    1
  2119  2825  2826    1
  2120  2825  2827    1
  2121  2825  2828    1
  2122  2829  2830    1
  2123  2829  2831    1
  2124  2829  2832    1
  2125  2833  2834    1
  2126  2833  2835    1
  2127  2833  2836    1
  2128  2837  2838    1
  2129  2837  2839    1
  2130  2837  2840    1
  2131  2841  2842    1
  2132  2841  2843    1
  2133  2841  2844    1
  2134  2845  2846    1
  2135  2845  2847    1
  2136  2845  2848    1
  2137  2849  2850    1
  2138  2849  2851    1
  2139  2849  2852    1
  2140  2853  2854    1
  2141  2853  2855    1
  2142  2853  2856    1
  2143  2857  2858    1
  2144  2857  2859    1
  2145  2857  2860    1
  2146  2861  2862    1
  2147  2861  2863    1
  2148  2861  2864    1
  2149  2865  2866    1
  2150  2865  2867    1
  2151  2865  2868    1
  2152  2869  2870    1
  2153  2869  2871    1
  2154  2869  2872    1
  2155  2873  2874    1
  2156  2873  2875    1
  2157  2873  2876    1
  2158  2877  2878    1
  2159  2877  2879    1
  2160  2877  2880    1
  2161  2881  2882    1
  2162  2881  2883    1
  2163  2881  2884    1
  2164  2885  2886    1
  2165  2885  2887    1
  2166  2885  2888    1
  2167  2889  2890    1
  2168  2889  2891    1
  2169  2889  2892    1
  2170  2893  2894    1
  2171  2893  2895    1
  2172  2893  2896    1
  2173  2897  2898    1
  2174  2897  2899    1
  2175  2897  2900    1
  2176  2901  2902    1
  2177  2901  2903    1
  2178  2901  2904    1
  2179  2905  2906    1
  2180  2905  2907    1
  2181  2905  2908    1
  2182  2909  2910    1
  2183  2909  2911    1
  2184  2909  2912    1
  2185  2913  2914    1
  2186  2913  2915    1
  2187  2913  2916    1
  2188  2917  2918    1
  2189  2917  2919    1
  2190  2917  2920    1
  2191  2921  2922    1
  2192  2921  2923    1
  2193  2921  2924    1
  2194  2925  2926    1
  2195  2925  2927    1
  2196  2925  2928    1
  2197  2929  2930    1
  2198  2929  2931    1
  2199  2929  2932    1
  2200  2933  2934    1
  2201  2933  2935    1
  2202  2933  2936    1
  2203  2937  2938    1
  2204  2937  2939    1
  2205  2937  2940    1
  2206  2941  2942    1
  2207  2941  2943    1
  2208  2941  2944    1
  2209  2945  2946    1
  2210  2945  2947    1
  2211  2945  2948    1
  2212  2949  2950    1
  2213  2949  2951    1
  2214  2949  2952    1
  2215  2953  2954    1
  2216  2953  2955    1
  2217  2953  2956    1
  2218  2957  2958    1
  2219  2957  2959    1
  2220  2957  2960    1
  2221  2961  2962    1
  2222  2961  2963    1
  2223  2961  2964    1
  2224  2965  2966    1
  2225  2965  2967    1
  2226  2965  2968    1
  2227  2969  2970    1
  2228  2969  2971    1
  2229  2969  2972    1
  2230  2973  2974    1
  2231  2973  2975    1
  2232  2973  2976    1
  2233  2977  2978    1
  2234  2977  2979    1
  2235  2977  2980    1
  2236  2981  2982    1
  2237  2981  2983    1
  2238  2981  2984    1
  2239  2985  2986    1
  2240  2985  2987    1
  2241  2985  2988    1
  2242  2989  2990    1
  2243  2989  2991    1
  2244  2989  2992    1
  2245  2993  2994    1
  2246  2993  2995    1
  2247  2993  2996    1
