@<TRIPOS>MOLECULE
*****
 3168 2376 0 0 0
SMALL
GASTEIGER

@<TRIPOS>ATOM
      1 N          -0.8999   -1.2441   -1.5491 N.3     1  UNL1       -0.3437
      2 H          -1.4859   -1.3468   -0.7218 H       1  UNL1        0.1146
      3 H          -0.4100   -0.3575   -1.4379 H       1  UNL1        0.1146
      4 H          -0.1872   -1.9692   -1.4802 H       1  UNL1        0.1146
      5 N          -1.3876   -1.0993    1.6954 N.3     2  UNL2       -0.3437
      6 H          -1.5487   -0.8087    2.6587 H       2  UNL2        0.1146
      7 H          -0.7522   -0.4097    1.2964 H       2  UNL2        0.1146
      8 H          -0.8600   -1.9694    1.7489 H       2  UNL2        0.1146
      9 N          -0.9028   -0.1349    4.1097 N.3     3  UNL3       -0.3437
     10 H          -1.4066   -1.0066    4.2667 H       3  UNL3        0.1146
     11 H          -1.5484    0.4770    3.6124 H       3  UNL3        0.1146
     12 H          -0.7719    0.2834    5.0297 H       3  UNL3        0.1146
     13 N          -0.8221   -1.1597    5.9066 N.3     4  UNL4       -0.3437
     14 H          -1.5473   -0.8045    6.5281 H       4  UNL4        0.1146
     15 H          -0.0883   -1.5256    6.5116 H       4  UNL4        0.1146
     16 H          -1.2267   -1.9677    5.4357 H       4  UNL4        0.1146
     17 N          -0.0278   -1.3227    8.4168 N.3     5  UNL5       -0.3437
     18 H           0.3942   -1.8473    7.6519 H       5  UNL5        0.1146
     19 H          -0.0881   -1.9699    9.2016 H       5  UNL5        0.1146
     20 H           0.6574   -0.6181    8.6859 H       5  UNL5        0.1146
     21 N           1.5612   -1.4312   10.6639 N.3     6  UNL6       -0.3437
     22 H           1.8778   -0.5364   11.0348 H       6  UNL6        0.1146
     23 H           1.2344   -1.9679   11.4660 H       6  UNL6        0.1146
     24 H           0.7330   -1.2269   10.1064 H       6  UNL6        0.1146
     25 N          -0.8808   -1.2347   12.7317 N.3     7  UNL7       -0.3437
     26 H          -0.6687   -0.7529   13.6042 H       7  UNL7        0.1146
     27 H          -1.5476   -1.9674   12.9703 H       7  UNL7        0.1146
     28 H          -1.3924   -0.5653   12.1584 H       7  UNL7        0.1146
     29 N           1.4286   -1.3989   14.6480 N.3     8  UNL8       -0.3437
     30 H           1.7617   -0.7248   15.3357 H       8  UNL8        0.1146
     31 H           0.7335   -1.9693   15.1276 H       8  UNL8        0.1146
     32 H           0.9169   -0.8597   13.9511 H       8  UNL8        0.1146
     33 N          -0.6766   -1.2347   16.8605 N.3     9  UNL9       -0.3437
     34 H          -0.4645   -0.7529   17.7330 H       9  UNL9        0.1146
     35 H          -1.3434   -1.9674   17.0991 H       9  UNL9        0.1146
     36 H          -1.1882   -0.5653   16.2872 H       9  UNL9        0.1146
     37 N           1.5048   -1.1544   19.2000 N.3    10  UNL10      -0.3437
     38 H           1.3953   -0.3508   19.8169 H      10  UNL10       0.1146
     39 H           1.2409   -1.9698   19.7513 H      10  UNL10       0.1146
     40 H           0.7882   -1.0570   18.4820 H      10  UNL10       0.1146
     41 N          -1.1070   -1.0993   22.2259 N.3    11  UNL11      -0.3437
     42 H          -1.5487   -0.8087   23.0970 H      11  UNL11       0.1146
     43 H          -0.3814   -0.4097   22.0352 H      11  UNL11       0.1146
     44 H          -0.6195   -1.9694   22.4348 H      11  UNL11       0.1146
     45 N          -1.4807    1.6582   -1.1509 N.3    12  UNL12      -0.3437
     46 H          -1.5475    1.9836   -0.1876 H      12  UNL12       0.1146
     47 H          -0.6682    2.1263   -1.5498 H      12  UNL12       0.1146
     48 H          -1.2373    0.6701   -1.0973 H      12  UNL12       0.1146
     49 N          -0.7996    1.9985    1.7372 N.3    13  UNL13      -0.3437
     50 H           0.1626    2.2891    1.5698 H      13  UNL13       0.1146
     51 H          -1.3866    2.6881    1.2700 H      13  UNL13       0.1146
     52 H          -0.9240    1.1284    1.2216 H      13  UNL13       0.1146
     53 N          -1.3654    2.1469    3.5204 N.3    14  UNL14      -0.3437
     54 H          -1.5481    2.2288    4.5195 H      14  UNL14       0.1146
     55 H          -0.9366    3.0278    3.2401 H      14  UNL14       0.1146
     56 H          -0.6394    1.4383    3.4247 H      14  UNL14       0.1146
     57 N          -1.1081    0.2611    8.1653 N.3    15  UNL15      -0.3437
     58 H          -1.5498    1.1275    8.4697 H      15  UNL15       0.1146
     59 H          -0.3825    0.5332    7.5035 H      15  UNL15       0.1146
     60 H          -0.6206   -0.1072    8.9808 H      15  UNL15       0.1146
     61 N           0.1185    1.4612    8.8694 N.3    16  UNL16      -0.3437
     62 H           0.4314    2.2645    9.4127 H      16  UNL16       0.1146
     63 H           0.0855    1.7734    7.9000 H      16  UNL16       0.1146
     64 H           0.8727    0.7777    8.9187 H      16  UNL16       0.1146
     65 N          -1.1081    0.0973   10.5523 N.3    17  UNL17      -0.3437
     66 H          -1.5498    0.6350   11.2966 H      17  UNL17       0.1146
     67 H          -0.3825    0.6983   10.1641 H      17  UNL17       0.1146
     68 H          -0.6206   -0.6706   11.0118 H      17  UNL17       0.1146
     69 N          -0.9604    2.4167   12.7823 N.3    18  UNL18      -0.3437
     70 H           0.0018    2.7073   12.6149 H      18  UNL18       0.1146
     71 H          -1.5474    3.1063   12.3151 H      18  UNL18       0.1146
     72 H          -1.0848    1.5466   12.2668 H      18  UNL18       0.1146
     73 N          -1.1081    0.2092   14.7682 N.3    19  UNL19      -0.3437
     74 H          -1.5498    0.4998   15.6393 H      19  UNL19       0.1146
     75 H          -0.3825    0.8988   14.5775 H      19  UNL19       0.1146
     76 H          -0.6206   -0.6609   14.9771 H      19  UNL19       0.1146
     77 N          -0.9604    2.3611   17.0515 N.3    20  UNL20      -0.3437
     78 H           0.0018    2.6517   16.8841 H      20  UNL20       0.1146
     79 H          -1.5474    3.0507   16.5843 H      20  UNL20       0.1146
     80 H          -1.0848    1.4910   16.5359 H      20  UNL20       0.1146
     81 N          -1.1081   -1.0997   19.4672 N.3    21  UNL21      -0.3437
     82 H          -1.5498   -0.8091   20.3383 H      21  UNL21       0.1146
     83 H          -0.3825   -0.4101   19.2765 H      21  UNL21       0.1146
     84 H          -0.6206   -1.9698   19.6761 H      21  UNL21       0.1146
     85 N          -1.0885    2.0248   22.4005 N.3    22  UNL22      -0.3437
     86 H          -1.5221    2.3154   21.5253 H      22  UNL22       0.1146
     87 H          -1.3700    2.7144   23.0960 H      22  UNL22       0.1146
     88 H          -1.5477    1.1547   22.6661 H      22  UNL22       0.1146
     89 N          -1.1062    4.0840   -1.1597 N.3    23  UNL23      -0.3437
     90 H          -1.5479    4.6218   -0.4153 H      23  UNL23       0.1146
     91 H          -0.3806    4.6851   -1.5478 H      23  UNL23       0.1146
     92 H          -0.6187    3.3162   -0.7002 H      23  UNL23       0.1146
     93 N          -1.1791    4.4852    1.7404 N.3    24  UNL24      -0.3437
     94 H          -0.8914    5.4597    1.6633 H      24  UNL24       0.1146
     95 H          -1.5491    4.2284    0.8263 H      24  UNL24       0.1146
     96 H          -0.3213    3.9476    1.8573 H      24  UNL24       0.1146
     97 N          -1.4149    4.3083    3.9481 N.3    25  UNL25      -0.3437
     98 H          -1.5476    5.2291    4.3639 H      25  UNL25       0.1146
     99 H          -0.5996    4.3885    3.3420 H      25  UNL25       0.1146
    100 H          -1.1377    3.6928    4.7115 H      25  UNL25       0.1146
    101 N          -0.8484    4.7755    6.4913 N.3    26  UNL26      -0.3437
    102 H          -0.5170    3.8279    6.6661 H      26  UNL26       0.1146
    103 H          -1.5473    4.6971    5.7539 H      26  UNL26       0.1146
    104 H          -1.3553    5.0550    7.3300 H      26  UNL26       0.1146
    105 N          -0.6246    3.8107    8.3118 N.3    27  UNL27      -0.3437
    106 H          -0.7581    2.8153    8.4843 H      27  UNL27       0.1146
    107 H          -1.5491    4.2339    8.3796 H      27  UNL27       0.1146
    108 H          -0.0946    4.1649    9.1067 H      27  UNL27       0.1146
    109 N          -0.9217    4.7688   10.6139 N.3    28  UNL28      -0.3437
    110 H          -0.7783    5.0594    9.6478 H      28  UNL28       0.1146
    111 H          -1.5496    5.4584   11.0244 H      28  UNL28       0.1146
    112 H          -1.4502    3.8987   10.5700 H      28  UNL28       0.1146
    113 N          -1.3016    4.3812   13.1619 N.3    29  UNL29      -0.3437
    114 H          -1.5473    5.1623   13.7684 H      29  UNL29       0.1146
    115 H          -0.9845    4.7944   12.2861 H      29  UNL29       0.1146
    116 H          -0.4803    3.9475   13.5814 H      29  UNL29       0.1146
    117 N          -1.1081    4.7220   15.3800 N.3    30  UNL30      -0.3437
    118 H          -1.5498    5.0126   16.2511 H      30  UNL30       0.1146
    119 H          -0.3825    5.4116   15.1893 H      30  UNL30       0.1146
    120 H          -0.6206    3.8519   15.5889 H      30  UNL30       0.1146
    121 N          -0.3095    4.2657   17.1916 N.3    31  UNL31      -0.3437
    122 H          -1.2540    4.1532   17.5572 H      31  UNL31       0.1146
    123 H          -0.1699    5.2687   17.0781 H      31  UNL31       0.1146
    124 H           0.3180    3.9779   17.9412 H      31  UNL31       0.1146
    125 N          -0.8482    4.5263   19.3074 N.3    32  UNL32      -0.3437
    126 H           0.0199    4.8169   18.8600 H      32  UNL32       0.1146
    127 H          -1.5481    5.2159   19.0371 H      32  UNL32       0.1146
    128 H          -1.1211    3.6562   18.8526 H      32  UNL32       0.1146
    129 N          -0.0489    3.7947   22.5112 N.3    33  UNL33      -0.3437
    130 H          -0.8243    4.1153   23.0895 H      33  UNL33       0.1146
    131 H           0.5429    4.6100   22.3578 H      33  UNL33       0.1146
    132 H           0.4935    3.1600   23.0954 H      33  UNL33       0.1146
    133 N          -1.0885    6.9751   -0.3518 N.3    34  UNL34      -0.3437
    134 H          -1.5221    7.2657   -1.2270 H      34  UNL34       0.1146
    135 H          -1.3700    7.6647    0.3436 H      34  UNL34       0.1146
    136 H          -1.5477    6.1050   -0.0863 H      34  UNL34       0.1146
    137 N           0.5352    7.2559    1.0764 N.3    35  UNL35      -0.3437
    138 H          -0.2986    6.7424    1.3585 H      35  UNL35       0.1146
    139 H           0.8073    7.8149    1.8838 H      35  UNL35       0.1146
    140 H           1.2682    6.5581    0.9581 H      35  UNL35       0.1146
    141 N          -1.1081    7.2877    3.9811 N.3    36  UNL36      -0.3437
    142 H          -1.5498    7.5783    4.8522 H      36  UNL36       0.1146
    143 H          -0.3825    7.9773    3.7904 H      36  UNL36       0.1146
    144 H          -0.6206    6.4176    4.1900 H      36  UNL36       0.1146
    145 N          -0.5603    6.5450    5.8775 N.3    37  UNL37      -0.3437
    146 H          -1.5048    6.4325    6.2432 H      37  UNL37       0.1146
    147 H          -0.4207    7.5480    5.7640 H      37  UNL37       0.1146
    148 H           0.0671    6.2573    6.6271 H      37  UNL37       0.1146
    149 N          -1.4412    6.6704    8.7361 N.3    38  UNL38      -0.3437
    150 H          -1.5472    7.5486    9.2419 H      38  UNL38       0.1146
    151 H          -1.3577    6.9213    7.7520 H      38  UNL38       0.1146
    152 H          -0.5330    6.2971    9.0087 H      38  UNL38       0.1146
    153 N          -0.7780    7.0362   10.6439 N.3    39  UNL39      -0.3437
    154 H          -1.2197    7.3268   11.5150 H      39  UNL39       0.1146
    155 H          -0.0524    7.7258   10.4532 H      39  UNL39       0.1146
    156 H          -0.2905    6.1661   10.8528 H      39  UNL39       0.1146
    157 N           0.0532    6.3689   12.4617 N.3    40  UNL40      -0.3437
    158 H          -0.8913    6.3709   12.8442 H      40  UNL40       0.1146
    159 H           0.1928    7.2921   12.0535 H      40  UNL40       0.1146
    160 H           0.6806    6.3184   13.2630 H      40  UNL40       0.1146
    161 N           0.0748    7.1897   14.6938 N.3    41  UNL41      -0.3437
    162 H           0.6212    7.9714   15.0527 H      41  UNL41       0.1146
    163 H          -0.0174    7.3482   13.6914 H      41  UNL41       0.1146
    164 H           0.6648    6.3650   14.7946 H      41  UNL41       0.1146
    165 N          -1.1081    7.1296   16.2374 N.3    42  UNL42      -0.3437
    166 H          -1.5498    7.4202   17.1085 H      42  UNL42       0.1146
    167 H          -0.3825    7.8192   16.0467 H      42  UNL42       0.1146
    168 H          -0.6206    6.2595   16.4463 H      42  UNL42       0.1146
    169 N          -0.5336    6.6318   18.4802 N.3    43  UNL43      -0.3437
    170 H          -1.5492    6.6338   18.5628 H      43  UNL43       0.1146
    171 H          -0.2783    7.5550   18.1324 H      43  UNL43       0.1146
    172 H          -0.1744    6.5813   19.4325 H      43  UNL43       0.1146
    173 N          -1.1081    6.8029   22.4289 N.3    44  UNL44      -0.3437
    174 H          -1.5498    5.9312   22.1404 H      44  UNL44       0.1146
    175 H          -0.3825    6.5430   23.0955 H      44  UNL44       0.1146
    176 H          -0.6206    7.1563   21.6068 H      44  UNL44       0.1146
    177 N          -1.1081    9.2280   -1.3590 N.3    45  UNL45      -0.3437
    178 H          -1.5498    9.5186   -0.4879 H      45  UNL45       0.1146
    179 H          -0.3825    9.9176   -1.5497 H      45  UNL45       0.1146
    180 H          -0.6206    8.3579   -1.1501 H      45  UNL45       0.1146
    181 N          -1.1081    9.4701    1.8810 N.3    46  UNL46      -0.3437
    182 H          -1.5498    9.7607    2.7521 H      46  UNL46       0.1146
    183 H          -0.3825   10.1597    1.6903 H      46  UNL46       0.1146
    184 H          -0.6206    8.6000    2.0899 H      46  UNL46       0.1146
    185 N          -0.6041    9.6840    4.0975 N.3    47  UNL47      -0.3437
    186 H          -1.5486    9.3830    4.3336 H      47  UNL47       0.1146
    187 H          -0.4645   10.5725    4.5766 H      47  UNL47       0.1146
    188 H           0.0233    9.0199    4.5489 H      47  UNL47       0.1146
    189 N          -1.1081    8.6199    6.8623 N.3    48  UNL48      -0.3437
    190 H          -1.5498    8.9105    7.7334 H      48  UNL48       0.1146
    191 H          -0.3825    9.3095    6.6716 H      48  UNL48       0.1146
    192 H          -0.6206    7.7498    7.0712 H      48  UNL48       0.1146
    193 N          -0.6904   10.1264    8.4520 N.3    49  UNL49      -0.3437
    194 H          -1.2593    9.8117    9.2366 H      49  UNL49       0.1146
    195 H          -0.0295   10.8000    8.8365 H      49  UNL49       0.1146
    196 H          -0.1358    9.3206    8.1663 H      49  UNL49       0.1146
    197 N           0.8298    9.7654   10.1838 N.3    50  UNL50      -0.3437
    198 H           0.3881    8.8936    9.8953 H      50  UNL50       0.1146
    199 H           1.5554    9.5055   10.8504 H      50  UNL50       0.1146
    200 H           1.3173   10.1187    9.3617 H      50  UNL50       0.1146
    201 N          -1.5181    8.8396   13.7565 N.3    51  UNL51      -0.3437
    202 H          -1.5472    9.4123   14.5989 H      51  UNL51       0.1146
    203 H          -0.7884    9.2409   13.1692 H      51  UNL51       0.1146
    204 H          -1.1727    7.9267   14.0492 H      51  UNL51       0.1146
    205 N           0.0533   10.0209   15.0804 N.3    52  UNL52      -0.3437
    206 H          -0.8050   10.5502   15.2266 H      52  UNL52       0.1146
    207 H           0.5316   10.0072   15.9802 H      52  UNL52       0.1146
    208 H          -0.2361    9.0603   14.9017 H      52  UNL52       0.1146
    209 N          -1.1081    9.7307   17.0963 N.3    53  UNL53      -0.3437
    210 H          -1.5498    9.6971   16.1786 H      53  UNL53       0.1146
    211 H          -0.3825    9.0153   17.0852 H      53  UNL53       0.1146
    212 H          -0.6206   10.6245   17.1407 H      53  UNL53       0.1146
    213 N          -1.1081   10.0691   21.4203 N.3    54  UNL54      -0.3437
    214 H          -1.5498   10.3597   22.2914 H      54  UNL54       0.1146
    215 H          -0.3825   10.7587   21.2296 H      54  UNL54       0.1146
    216 H          -0.6206    9.1990   21.6292 H      54  UNL54       0.1146
    217 N           0.6639    8.2356   22.6180 N.3    55  UNL55      -0.3437
    218 H           0.4816    8.3738   21.6250 H      55  UNL55       0.1146
    219 H          -0.2071    8.4593   23.0973 H      55  UNL55       0.1146
    220 H           0.8029    7.2337   22.7412 H      55  UNL55       0.1146
    221 N          -1.1081   12.3784   -1.3564 N.3    56  UNL56      -0.3437
    222 H          -1.5498   12.6690   -0.4853 H      56  UNL56       0.1146
    223 H          -0.3825   13.0680   -1.5471 H      56  UNL56       0.1146
    224 H          -0.6206   11.5083   -1.1475 H      56  UNL56       0.1146
    225 N          -1.1062   12.3784    1.3356 N.3    57  UNL57      -0.3437
    226 H          -1.5479   12.6690    2.2067 H      57  UNL57       0.1146
    227 H          -0.3806   13.0680    1.1449 H      57  UNL57       0.1146
    228 H          -0.6187   11.5083    1.5445 H      57  UNL57       0.1146
    229 N          -1.1082   12.7143    4.0732 N.3    58  UNL58      -0.3437
    230 H          -1.5499   11.8425    3.7847 H      58  UNL58       0.1146
    231 H          -0.3826   12.4544    4.7398 H      58  UNL58       0.1146
    232 H          -0.6207   13.0677    3.2511 H      58  UNL58       0.1146
    233 N          -1.1080   11.4077    6.3409 N.3    59  UNL59      -0.3437
    234 H          -1.5497   11.6983    7.2120 H      59  UNL59       0.1146
    235 H          -0.3824   12.0973    6.1502 H      59  UNL59       0.1146
    236 H          -0.6205   10.5376    6.5498 H      59  UNL59       0.1146
    237 N           0.2654   12.5843    8.1973 N.3    60  UNL60      -0.3437
    238 H           1.0419   13.0671    8.6471 H      60  UNL60       0.1146
    239 H           0.6779   11.8075    7.6827 H      60  UNL60       0.1146
    240 H          -0.2785   12.1650    8.9502 H      60  UNL60       0.1146
    241 N          -1.1081   12.3775   10.4756 N.3    61  UNL61      -0.3437
    242 H          -1.5498   12.6681   11.3467 H      61  UNL61       0.1146
    243 H          -0.3825   13.0671   10.2849 H      61  UNL61       0.1146
    244 H          -0.6206   11.5074   10.6845 H      61  UNL61       0.1146
    245 N          -0.1461   10.8723   12.4510 N.3    62  UNL62      -0.3437
    246 H          -0.5878   11.1629   13.3221 H      62  UNL62       0.1146
    247 H           0.5795   11.5619   12.2603 H      62  UNL62       0.1146
    248 H           0.3414   10.0022   12.6599 H      62  UNL62       0.1146
    249 N           1.0737   11.6729   15.0604 N.3    63  UNL63      -0.3437
    250 H           0.5654   11.8181   15.9315 H      63  UNL63       0.1146
    251 H           1.5600   12.5479   14.8697 H      63  UNL63       0.1146
    252 H           1.7991   10.9883   15.2693 H      63  UNL63       0.1146
    253 N          -1.1081   12.7143   17.0590 N.3    64  UNL64      -0.3437
    254 H          -1.5498   11.8425   16.7705 H      64  UNL64       0.1146
    255 H          -0.3825   12.4544   17.7256 H      64  UNL64       0.1146
    256 H          -0.6206   13.0677   16.2369 H      64  UNL64       0.1146
    257 N          -0.4679   11.3025   19.1718 N.3    65  UNL65      -0.3437
    258 H          -0.9096   11.5931   20.0429 H      65  UNL65       0.1146
    259 H           0.2577   11.9921   18.9811 H      65  UNL65       0.1146
    260 H           0.0196   10.4324   19.3807 H      65  UNL65       0.1146
    261 N          -0.6613   12.8651   21.5332 N.3    66  UNL66      -0.3437
    262 H          -0.7766   11.9561   21.9792 H      66  UNL66       0.1146
    263 H           0.0153   12.7266   20.7840 H      66  UNL66       0.1146
    264 H          -1.5490   13.0682   21.0759 H      66  UNL66       0.1146
    265 N           0.5048   -1.5314   -0.1489 N.3    67  UNL67      -0.3437
    266 H          -0.0237   -1.5448    0.7222 H      67  UNL67       0.1146
    267 H           0.7072   -0.5510   -0.3396 H      67  UNL67       0.1146
    268 H           1.4017   -1.9677    0.0600 H      67  UNL67       0.1146
    269 N           0.9756   -1.0993    1.8614 N.3    68  UNL68      -0.3437
    270 H           0.5339   -0.8087    2.7325 H      68  UNL68       0.1146
    271 H           1.7012   -0.4097    1.6707 H      68  UNL68       0.1146
    272 H           1.4631   -1.9694    2.0703 H      68  UNL68       0.1146
    273 N           2.1646   -1.4180    4.2949 N.3    69  UNL69      -0.3437
    274 H           1.3529   -1.0408    4.7819 H      69  UNL69       0.1146
    275 H           1.7966   -1.9690    3.5207 H      69  UNL69       0.1146
    276 H           2.6350   -0.6190    3.8723 H      69  UNL69       0.1146
    277 N           1.6164   -1.0993    6.3613 N.3    70  UNL70      -0.3437
    278 H           1.1747   -0.8087    7.2324 H      70  UNL70       0.1146
    279 H           2.3420   -0.4097    6.1706 H      70  UNL70       0.1146
    280 H           2.1039   -1.9694    6.5702 H      70  UNL70       0.1146
    281 N           3.1623   -1.9687    7.9488 N.3    71  UNL71      -0.3437
    282 H           2.2178   -1.8525    8.3132 H      71  UNL71       0.1146
    283 H           3.3019   -1.2099    7.2832 H      71  UNL71       0.1146
    284 H           3.7898   -1.7773    8.7285 H      71  UNL71       0.1146
    285 N          -0.0217    0.3739   12.4086 N.3    72  UNL72      -0.3437
    286 H          -0.4634    0.6645   13.2797 H      72  UNL72       0.1146
    287 H           0.7039    1.0635   12.2179 H      72  UNL72       0.1146
    288 H           0.4658   -0.4962   12.6175 H      72  UNL72       0.1146
    289 N           1.9932    0.0000   12.5795 N.3    73  UNL73      -0.3437
    290 H           1.5515    0.2906   13.4506 H      73  UNL73       0.1146
    291 H           2.7188    0.6896   12.3888 H      73  UNL73       0.1146
    292 H           2.4807   -0.8701   12.7884 H      73  UNL73       0.1146
    293 N           0.3435    0.3331   16.1671 N.3    74  UNL74      -0.3437
    294 H          -0.0982    0.6237   17.0382 H      74  UNL74       0.1146
    295 H           1.0691    1.0227   15.9764 H      74  UNL74       0.1146
    296 H           0.8310   -0.5370   16.3760 H      74  UNL74       0.1146
    297 N           2.1159   -0.2369   17.1498 N.3    75  UNL75      -0.3437
    298 H           1.6742    0.0537   18.0209 H      75  UNL75       0.1146
    299 H           2.8415    0.4527   16.9591 H      75  UNL75       0.1146
    300 H           2.6034   -1.1070   17.3587 H      75  UNL75       0.1146
    301 N          -0.0389    0.6076   20.7019 N.3    76  UNL76      -0.3437
    302 H          -0.4806    0.8982   21.5730 H      76  UNL76       0.1146
    303 H           0.6867    1.2972   20.5112 H      76  UNL76       0.1146
    304 H           0.4486   -0.2625   20.9108 H      76  UNL76       0.1146
    305 N           1.7285   -1.2907   22.4449 N.3    77  UNL77      -0.3437
    306 H           2.1219   -1.9694   23.0952 H      77  UNL77       0.1146
    307 H           2.3721   -0.5007   22.4399 H      77  UNL77       0.1146
    308 H           1.7972   -1.7146   21.5208 H      77  UNL77       0.1146
    309 N           0.7709    2.5048    0.0364 N.3    78  UNL78      -0.3437
    310 H           0.7355    1.6637    0.6106 H      78  UNL78       0.1146
    311 H           1.7596    2.7023   -0.1118 H      78  UNL78       0.1146
    312 H           0.3981    2.2391   -0.8740 H      78  UNL78       0.1146
    313 N           0.4021    2.6621    3.8556 N.3    79  UNL79      -0.3437
    314 H          -0.0396    2.9527    4.7267 H      79  UNL79       0.1146
    315 H           1.1277    3.3517    3.6649 H      79  UNL79       0.1146
    316 H           0.8896    1.7920    4.0645 H      79  UNL79       0.1146
    317 N           1.4122    0.3350    3.9136 N.3    80  UNL80      -0.3437
    318 H           1.4508    0.8706    4.7796 H      80  UNL80       0.1146
    319 H           0.4555    0.4200    3.5732 H      80  UNL80       0.1146
    320 H           1.9938    0.8389    3.2456 H      80  UNL80       0.1146
    321 N          -0.7159    2.3350    6.0338 N.3    81  UNL81      -0.3437
    322 H          -1.5490    2.4218    6.6141 H      81  UNL81       0.1146
    323 H           0.0367    2.0579    6.6624 H      81  UNL81       0.1146
    324 H          -0.8807    1.5357    5.4235 H      81  UNL81       0.1146
    325 N           2.1207   -0.2940    9.0564 N.3    82  UNL82      -0.3437
    326 H           2.1791    0.5661    9.5997 H      82  UNL82       0.1146
    327 H           1.9958   -0.0059    8.0870 H      82  UNL82       0.1146
    328 H           3.0447   -0.7207    9.1057 H      82  UNL82       0.1146
    329 N          -0.7657    2.5137   10.8524 N.3    83  UNL83      -0.3437
    330 H          -0.3495    1.6654   11.2340 H      83  UNL83       0.1146
    331 H          -0.0417    3.2291   10.9032 H      83  UNL83       0.1146
    332 H          -0.9126    2.3329    9.8604 H      83  UNL83       0.1146
    333 N           0.1625    2.3201   14.1476 N.3    84  UNL84      -0.3437
    334 H          -0.2792    2.6107   15.0187 H      84  UNL84       0.1146
    335 H           0.8881    3.0097   13.9569 H      84  UNL84       0.1146
    336 H           0.6500    1.4500   14.3565 H      84  UNL84       0.1146
    337 N           2.0882    2.0002   14.7920 N.3    85  UNL85      -0.3437
    338 H           1.3128    2.5296   15.1882 H      85  UNL85       0.1146
    339 H           2.8135    1.9865   15.5076 H      85  UNL85       0.1146
    340 H           1.7585    1.0396   14.7080 H      85  UNL85       0.1146
    341 N          -0.3218    2.0893   18.9566 N.3    86  UNL86      -0.3437
    342 H          -0.7635    2.3799   19.8277 H      86  UNL86       0.1146
    343 H           0.4038    2.7789   18.7659 H      86  UNL86       0.1146
    344 H           0.1657    1.2192   19.1655 H      86  UNL86       0.1146
    345 N           2.0341    2.5423   19.8789 N.3    87  UNL87      -0.3437
    346 H           1.5924    1.6705   19.5904 H      87  UNL87       0.1146
    347 H           2.7597    2.2824   20.5455 H      87  UNL87       0.1146
    348 H           2.5216    2.8956   19.0568 H      87  UNL87       0.1146
    349 N           1.8800    1.4932   22.2951 N.3    88  UNL88      -0.3437
    350 H           1.2300    0.9960   22.9022 H      88  UNL88       0.1146
    351 H           2.7414    1.5957   22.8298 H      88  UNL88       0.1146
    352 H           2.0974    0.8534   21.5324 H      88  UNL88       0.1146
    353 N           1.9623    3.6541   -1.5495 N.3    89  UNL89      -0.3437
    354 H           1.2246    3.7275   -0.8503 H      89  UNL89       0.1146
    355 H           2.4712    4.5362   -1.5146 H      89  UNL89       0.1146
    356 H           2.6067    2.9442   -1.2044 H      89  UNL89       0.1146
    357 N           0.3414    5.0017    0.5277 N.3    90  UNL90      -0.3437
    358 H           0.9129    4.5936    1.2661 H      90  UNL90       0.1146
    359 H           0.9914    5.2997   -0.1983 H      90  UNL90       0.1146
    360 H          -0.1926    4.2316    0.1277 H      90  UNL90       0.1146
    361 N           2.4548    2.1412    4.5022 N.3    91  UNL91      -0.3437
    362 H           2.0131    2.1075    3.5845 H      91  UNL91       0.1146
    363 H           3.1804    1.4258    4.4911 H      91  UNL91       0.1146
    364 H           2.9423    3.0349    4.5466 H      91  UNL91       0.1146
    365 N           1.8637    4.9047    7.1782 N.3    92  UNL92      -0.3437
    366 H           1.2543    4.9767    6.3647 H      92  UNL92       0.1146
    367 H           2.4910    4.1237    6.9910 H      92  UNL92       0.1146
    368 H           2.4458    5.7410    7.1679 H      92  UNL92       0.1146
    369 N           1.4490    3.6242    8.6115 N.3    93  UNL93      -0.3437
    370 H           1.2912    3.2410    9.5424 H      93  UNL93       0.1146
    371 H           1.3224    4.6317    8.6973 H      93  UNL93       0.1146
    372 H           2.4382    3.4814    8.4130 H      93  UNL93       0.1146
    373 N           1.4655    4.7003   10.6232 N.3    94  UNL94      -0.3437
    374 H           1.8201    3.8739   11.1024 H      94  UNL94       0.1146
    375 H           1.4990    5.4565   11.3054 H      94  UNL94       0.1146
    376 H           2.1584    4.9321    9.9129 H      94  UNL94       0.1146
    377 N           1.4659    4.4021   12.6501 N.3    95  UNL95      -0.3437
    378 H           0.6905    4.9314   13.0463 H      95  UNL95       0.1146
    379 H           2.1913    4.3884   13.3657 H      95  UNL95       0.1146
    380 H           1.1363    3.4415   12.5661 H      95  UNL95       0.1146
    381 N           1.8602    4.2186   14.8651 N.3    96  UNL96      -0.3437
    382 H           1.9880    3.5732   15.6433 H      96  UNL96       0.1146
    383 H           1.7651    5.1442   15.2806 H      96  UNL96       0.1146
    384 H           2.7448    4.2273   14.3594 H      96  UNL96       0.1146
    385 N           1.5727    5.2396   16.7466 N.3    97  UNL97      -0.3437
    386 H           1.2198    5.3264   17.6985 H      97  UNL97       0.1146
    387 H           2.5495    4.9625   16.8334 H      97  UNL97       0.1146
    388 H           1.0892    4.4403   16.3395 H      97  UNL97       0.1146
    389 N          -1.4030    4.2865   21.0545 N.3    98  UNL98      -0.3437
    390 H          -1.5483    4.2586   22.0627 H      98  UNL98       0.1146
    391 H          -0.9492    5.1780   20.8607 H      98  UNL98       0.1146
    392 H          -0.7095    3.5682   20.8508 H      98  UNL98       0.1146
    393 N           1.9306    3.8323   22.2804 N.3    99  UNL99      -0.3437
    394 H           1.8845    3.2247   23.0971 H      99  UNL99       0.1146
    395 H           2.4774    4.6439   22.5645 H      99  UNL99       0.1146
    396 H           2.4984    3.3375   21.5939 H      99  UNL99       0.1146
    397 N           1.4841    7.2237   -1.0474 N.3   100  UNL100     -0.3437
    398 H           1.8805    7.0020   -0.1353 H     100  UNL100      0.1146
    399 H           2.2045    7.7419   -1.5484 H     100  UNL100      0.1146
    400 H           1.3874    6.3343   -1.5353 H     100  UNL100      0.1146
    401 N           0.3239    6.0986    3.0312 N.3   101  UNL101     -0.3437
    402 H           1.2639    6.4260    3.2493 H     101  UNL101      0.1146
    403 H          -0.1646    6.8964    2.6270 H     101  UNL101      0.1146
    404 H           0.4301    5.4225    2.2763 H     101  UNL101      0.1146
    405 N           0.2685    4.9403    4.7635 N.3   102  UNL102     -0.3437
    406 H           0.8714    5.6483    5.1802 H     102  UNL102      0.1146
    407 H           0.6912    4.7036    3.8670 H     102  UNL102      0.1146
    408 H           0.3648    4.1106    5.3472 H     102  UNL102      0.1146
    409 N           1.6802    7.4387    6.5604 N.3   103  UNL103     -0.3437
    410 H           1.0588    7.7615    7.3006 H     103  UNL103      0.1146
    411 H           2.5864    7.2863    7.0009 H     103  UNL103      0.1146
    412 H           1.3406    6.5166    6.2907 H     103  UNL103      0.1146
    413 N           0.9489    6.5299    8.5920 N.3   104  UNL104     -0.3437
    414 H           1.3035    5.8845    9.2964 H     104  UNL104      0.1146
    415 H           0.9824    7.4555    9.0169 H     104  UNL104      0.1146
    416 H           1.6418    6.5387    7.8449 H     104  UNL104      0.1146
    417 N           1.5595    7.1859   10.4669 N.3   105  UNL105     -0.3437
    418 H           1.9611    6.8027   11.3215 H     105  UNL105      0.1146
    419 H           1.5045    8.1933   10.6096 H     105  UNL105      0.1146
    420 H           2.2585    7.0430    9.7394 H     105  UNL105      0.1146
    421 N           2.2722    6.9091   12.8985 N.3   106  UNL106     -0.3437
    422 H           1.4968    7.4385   13.2946 H     106  UNL106      0.1146
    423 H           2.9975    6.8955   13.6140 H     106  UNL106      0.1146
    424 H           1.9425    5.9486   12.8144 H     106  UNL106      0.1146
    425 N           1.9187    6.9733   15.6145 N.3   107  UNL107     -0.3437
    426 H           2.3203    7.6405   16.2717 H     107  UNL107      0.1146
    427 H           1.8638    7.4584   14.7200 H     107  UNL107      0.1146
    428 H           2.6178    6.2416   15.4946 H     107  UNL107      0.1146
    429 N           1.3013    6.9213   17.9009 N.3   108  UNL108     -0.3437
    430 H           2.1343    7.3317   17.4813 H     108  UNL108      0.1146
    431 H           0.9499    7.6127   18.5619 H     108  UNL108      0.1146
    432 H           0.6085    6.8681   17.1555 H     108  UNL108      0.1146
    433 N           1.9779    7.7132   19.8643 N.3   109  UNL109     -0.3437
    434 H           1.1635    8.0360   20.3849 H     109  UNL109      0.1146
    435 H           2.7108    7.5609   20.5557 H     109  UNL109      0.1146
    436 H           1.7344    6.7911   19.5054 H     109  UNL109      0.1146
    437 N           0.7520    5.5882   20.8761 N.3   110  UNL110     -0.3437
    438 H           0.3103    5.8788   21.7472 H     110  UNL110      0.1146
    439 H           1.4776    6.2778   20.6854 H     110  UNL110      0.1146
    440 H           1.2395    4.7181   21.0850 H     110  UNL110      0.1146
    441 N           0.5236    9.2689    0.3276 N.3   111  UNL111     -0.3437
    442 H           1.2183    9.5595   -0.3590 H     111  UNL111      0.1146
    443 H          -0.2250    9.9585    0.2789 H     111  UNL111      0.1146
    444 H           0.1273    8.3988   -0.0248 H     111  UNL111      0.1146
    445 N           1.2902    9.7134    2.2217 N.3   112  UNL112     -0.3437
    446 H           1.6225   10.2562    3.0175 H     112  UNL112      0.1146
    447 H           1.5744   10.2303    1.3908 H     112  UNL112      0.1146
    448 H           1.8383    8.8544    2.2192 H     112  UNL112      0.1146
    449 N           2.1619    6.0863    4.5819 N.3   113  UNL113     -0.3437
    450 H           2.6453    5.4483    5.2125 H     113  UNL113      0.1146
    451 H           2.4323    7.0253    4.8708 H     113  UNL113      0.1146
    452 H           2.5798    5.9438    3.6635 H     113  UNL113      0.1146
    453 N           1.1391    9.5032    5.8332 N.3   114  UNL114     -0.3437
    454 H           0.6974   10.0271    5.0790 H     114  UNL114      0.1146
    455 H           1.8647    8.9377    5.3948 H     114  UNL114      0.1146
    456 H           1.6266   10.1913    6.4052 H     114  UNL114      0.1146
    457 N           1.9849    8.8263    8.2746 N.3   115  UNL115     -0.3437
    458 H           1.0404    8.8283    8.6571 H     115  UNL115      0.1146
    459 H           2.1245    9.7495    7.8663 H     115  UNL115      0.1146
    460 H           2.6124    8.7758    9.0759 H     115  UNL115      0.1146
    461 N          -1.1061    9.5257   11.1967 N.3   116  UNL116     -0.3437
    462 H          -1.5478    9.8163   12.0678 H     116  UNL116      0.1146
    463 H          -0.3805   10.2153   11.0060 H     116  UNL116      0.1146
    464 H          -0.6186    8.6556   11.4056 H     116  UNL116      0.1146
    465 N           1.8740    8.8709   12.3847 N.3   117  UNL117     -0.3437
    466 H           0.9295    8.7584   12.7503 H     117  UNL117      0.1146
    467 H           2.0137    9.8739   12.2712 H     117  UNL117      0.1146
    468 H           2.5015    8.5831   13.1343 H     117  UNL117      0.1146
    469 N           2.0777    9.0898   15.0814 N.3   118  UNL118     -0.3437
    470 H           1.6360    9.8153   14.5184 H     118  UNL118      0.1146
    471 H           2.8033    8.6813   14.4940 H     118  UNL118      0.1146
    472 H           2.5652    9.5754   15.8330 H     118  UNL118      0.1146
    473 N           1.8771    9.6572   17.8996 N.3   119  UNL119     -0.3437
    474 H           1.0217    9.9478   17.4283 H     119  UNL119      0.1146
    475 H           2.0428   10.3468   18.6313 H     119  UNL119      0.1146
    476 H           1.6516    8.7871   18.3796 H     119  UNL119      0.1146
    477 N          -0.8976    9.0039   18.9726 N.3   120  UNL120     -0.3437
    478 H          -1.5499    9.7558   19.1906 H     120  UNL120      0.1146
    479 H          -0.1488    9.0735   19.6602 H     120  UNL120      0.1146
    480 H          -1.3897    8.1361   19.1801 H     120  UNL120      0.1146
    481 N           2.4977    7.1198   22.3488 N.3   121  UNL121     -0.3437
    482 H           1.8223    7.4104   21.6433 H     121  UNL121      0.1146
    483 H           2.4371    7.8094   23.0966 H     121  UNL121      0.1146
    484 H           2.1390    6.2497   22.7395 H     121  UNL121      0.1146
    485 N           2.0926   12.8118   -1.3564 N.3   122  UNL122     -0.3437
    486 H           2.6085   12.9275   -0.4853 H     122  UNL122      0.1146
    487 H           2.0844   11.8108   -1.5471 H     122  UNL122      0.1146
    488 H           1.1282   13.0658   -1.1475 H     122  UNL122      0.1146
    489 N           1.6984   12.3784    2.3567 N.3   123  UNL123     -0.3437
    490 H           2.6667   12.6690    2.4846 H     123  UNL123      0.1146
    491 H           1.2779   13.0680    1.7354 H     123  UNL123      0.1146
    492 H           1.7339   11.5083    1.8275 H     123  UNL123      0.1146
    493 N           1.6891   11.5130    4.2341 N.3   124  UNL124     -0.3437
    494 H           1.2474   11.8036    5.1052 H     124  UNL124      0.1146
    495 H           2.4147   12.2026    4.0434 H     124  UNL124      0.1146
    496 H           2.1766   10.6429    4.4430 H     124  UNL124      0.1146
    497 N           2.2958   12.3784    6.6721 N.3   125  UNL125     -0.3437
    498 H           2.7534   12.6690    5.8092 H     125  UNL125      0.1146
    499 H           1.5669   13.0680    6.8494 H     125  UNL125      0.1146
    500 H           1.8122   11.5083    6.4543 H     125  UNL125      0.1146
    501 N           1.9234   11.4149    8.8572 N.3   126  UNL126     -0.3437
    502 H           2.2828   12.3333    9.1138 H     126  UNL126      0.1146
    503 H           2.2361   11.2478    7.9019 H     126  UNL126      0.1146
    504 H           2.4251   10.7447    9.4382 H     126  UNL126      0.1146
    505 N           1.1461   12.3784   10.5633 N.3   127  UNL127     -0.3437
    506 H           0.7044   12.6690   11.4344 H     127  UNL127      0.1146
    507 H           1.8717   13.0680   10.3726 H     127  UNL127      0.1146
    508 H           1.6336   11.5083   10.7722 H     127  UNL127      0.1146
    509 N           1.8676   12.3784   12.6934 N.3   128  UNL128     -0.3437
    510 H           1.4259   12.6690   13.5645 H     128  UNL128      0.1146
    511 H           2.5932   13.0680   12.5027 H     128  UNL128      0.1146
    512 H           2.3551   11.5083   12.9023 H     128  UNL128      0.1146
    513 N          -1.1061   12.7143   14.2836 N.3   129  UNL129     -0.3437
    514 H          -1.5478   11.8425   13.9951 H     129  UNL129      0.1146
    515 H          -0.3805   12.4544   14.9502 H     129  UNL129      0.1146
    516 H          -0.6186   13.0677   13.4615 H     129  UNL129      0.1146
    517 N           1.9581   12.3785   16.8428 N.3   130  UNL130     -0.3437
    518 H           1.5164   12.6691   17.7139 H     130  UNL130      0.1146
    519 H           2.6837   13.0681   16.6521 H     130  UNL130      0.1146
    520 H           2.4456   11.5084   17.0517 H     130  UNL130      0.1146
    521 N           1.9801   12.3784   19.8396 N.3   131  UNL131     -0.3437
    522 H           2.9423   12.6690   19.6722 H     131  UNL131      0.1146
    523 H           1.3930   13.0680   19.3724 H     131  UNL131      0.1146
    524 H           1.8557   11.5083   19.3241 H     131  UNL131      0.1146
    525 N           1.6631   11.8926   22.2250 N.3   132  UNL132     -0.3437
    526 H           1.2214   12.1832   23.0961 H     132  UNL132      0.1146
    527 H           2.3887   12.5822   22.0343 H     132  UNL132      0.1146
    528 H           2.1506   11.0225   22.4339 H     132  UNL132      0.1146
    529 N           2.8653   -1.0993    0.2791 N.3   133  UNL133     -0.3437
    530 H           3.8336   -0.8087    0.4070 H     133  UNL133      0.1146
    531 H           2.4448   -0.4097   -0.3422 H     133  UNL133      0.1146
    532 H           2.9008   -1.9694   -0.2501 H     133  UNL133      0.1146
    533 N           3.4958   -0.2249    1.8643 N.3   134  UNL134     -0.3437
    534 H           3.0541    0.0657    2.7354 H     134  UNL134      0.1146
    535 H           4.2214    0.4647    1.6737 H     134  UNL134      0.1146
    536 H           3.9832   -1.0950    2.0732 H     134  UNL134      0.1146
    537 N           3.9898   -1.6485    4.4316 N.3   135  UNL135     -0.3437
    538 H           3.9997   -0.6304    4.3916 H     135  UNL135      0.1146
    539 H           4.0468   -1.9682    3.4657 H     135  UNL135      0.1146
    540 H           4.8685   -1.9210    4.8699 H     135  UNL135      0.1146
    541 N           3.9250   -0.1257    5.9870 N.3   136  UNL136     -0.3437
    542 H           3.4833    0.1649    6.8581 H     136  UNL136      0.1146
    543 H           4.6506    0.5639    5.7963 H     136  UNL136      0.1146
    544 H           4.4125   -0.9958    6.1959 H     136  UNL136      0.1146
    545 N           3.9251    0.4090    8.3132 N.3   137  UNL137     -0.3437
    546 H           3.4834    0.6996    9.1843 H     137  UNL137      0.1146
    547 H           4.6507    1.0986    8.1225 H     137  UNL137      0.1146
    548 H           4.4126   -0.4611    8.5221 H     137  UNL137      0.1146
    549 N           3.9048   -1.9184   10.6853 N.3   138  UNL138     -0.3437
    550 H           2.9604   -1.9164   11.0678 H     138  UNL138      0.1146
    551 H           4.0445   -0.9952   10.2770 H     138  UNL138      0.1146
    552 H           4.5323   -1.9689   11.4866 H     138  UNL138      0.1146
    553 N           3.9279   -0.3301   12.6643 N.3   139  UNL139     -0.3437
    554 H           3.4862   -0.0395   13.5354 H     139  UNL139      0.1146
    555 H           4.6535    0.3595   12.4736 H     139  UNL139      0.1146
    556 H           4.4154   -1.2002   12.8732 H     139  UNL139      0.1146
    557 N           3.9806   -1.6807   14.4463 N.3   140  UNL140     -0.3437
    558 H           2.9700   -1.7932   14.5128 H     140  UNL140      0.1146
    559 H           4.1478   -0.6777   14.3797 H     140  UNL140      0.1146
    560 H           4.3552   -1.9685   15.3492 H     140  UNL140      0.1146
    561 N           4.2658   -1.0993   17.0475 N.3   141  UNL141     -0.3437
    562 H           3.5904   -0.8087   16.3420 H     141  UNL141      0.1146
    563 H           4.2051   -0.4097   17.7953 H     141  UNL141      0.1146
    564 H           3.9070   -1.9694   17.4382 H     141  UNL141      0.1146
    565 N           3.2941   -0.5147   19.2215 N.3   142  UNL142     -0.3437
    566 H           2.8524   -0.2241   20.0926 H     142  UNL142      0.1146
    567 H           4.0197    0.1749   19.0308 H     142  UNL142      0.1146
    568 H           3.7816   -1.3848   19.4304 H     142  UNL142      0.1146
    569 N           4.5079   -1.2545   20.7901 N.3   143  UNL143     -0.3437
    570 H           3.9550   -1.2214   21.6455 H     143  UNL143      0.1146
    571 H           5.0074   -0.3674   20.7441 H     143  UNL143      0.1146
    572 H           5.2182   -1.9691   20.9422 H     143  UNL143      0.1146
    573 N           1.8436    2.0014    1.5506 N.3   144  UNL144     -0.3437
    574 H           1.4019    2.2920    2.4217 H     144  UNL144      0.1146
    575 H           2.5692    2.6910    1.3599 H     144  UNL144      0.1146
    576 H           2.3311    1.1313    1.7594 H     144  UNL144      0.1146
    577 N           4.1156    2.1736    2.1548 N.3   145  UNL145     -0.3437
    578 H           3.1711    2.0611    2.5204 H     145  UNL145      0.1146
    579 H           4.2552    3.1766    2.0412 H     145  UNL145      0.1146
    580 H           4.7430    1.8858    2.9043 H     145  UNL145      0.1146
    581 N           4.3370    2.3480    4.6527 N.3   146  UNL146     -0.3437
    582 H           3.8953    2.6225    3.7764 H     146  UNL146      0.1146
    583 H           5.0626    1.6773    4.4035 H     146  UNL146      0.1146
    584 H           4.8245    3.1756    4.9929 H     146  UNL146      0.1146
    585 N           1.6328    2.8558    6.4204 N.3   147  UNL147     -0.3437
    586 H           2.4517    2.9016    5.8157 H     147  UNL147      0.1146
    587 H           0.8241    2.9094    5.8027 H     147  UNL147      0.1146
    588 H           1.6251    1.9150    6.8120 H     147  UNL147      0.1146
    589 N           3.7134    2.3602    8.9484 N.3   148  UNL148     -0.3437
    590 H           4.0679    1.7149    9.6528 H     148  UNL148      0.1146
    591 H           3.7469    3.2859    9.3733 H     148  UNL148      0.1146
    592 H           4.4063    2.3690    8.2013 H     148  UNL148      0.1146
    593 N           1.4873    1.6220   11.2223 N.3   149  UNL149     -0.3437
    594 H           2.4556    1.9126   11.3502 H     149  UNL149      0.1146
    595 H           1.0668    2.3116   10.6009 H     149  UNL149      0.1146
    596 H           1.5228    0.7519   10.6931 H     149  UNL149      0.1146
    597 N           2.5916    2.4559   12.9498 N.3   150  UNL150     -0.3437
    598 H           1.6817    2.0017   13.0151 H     150  UNL150      0.1146
    599 H           2.6787    3.0318   13.7860 H     150  UNL150      0.1146
    600 H           3.2834    1.7141   13.0464 H     150  UNL150      0.1146
    601 N           4.0374    0.6326   15.4119 N.3   151  UNL151     -0.3437
    602 H           3.8360    1.4708   15.9552 H     151  UNL151      0.1146
    603 H           3.8321    0.8702   14.4424 H     151  UNL151      0.1146
    604 H           5.0467    0.5017   15.4612 H     151  UNL151      0.1146
    605 N           1.4067    1.9029   17.2559 N.3   152  UNL152     -0.3437
    606 H           1.5345    1.5197   18.1915 H     152  UNL152      0.1146
    607 H           1.3116    2.9104   17.3757 H     152  UNL152      0.1146
    608 H           2.2913    1.7601   16.7707 H     152  UNL152      0.1146
    609 N           3.6578    1.7447   19.4238 N.3   153  UNL153     -0.3437
    610 H           4.0124    1.3394   20.2889 H     153  UNL153      0.1146
    611 H           3.6913    2.7550   19.5525 H     153  UNL153      0.1146
    612 H           4.3507    1.5297   18.7082 H     153  UNL153      0.1146
    613 N           4.3724    0.7952   22.5384 N.3   154  UNL154     -0.3437
    614 H           3.9307    0.0496   22.0024 H     154  UNL154      0.1146
    615 H           5.0980    0.3479   23.0968 H     154  UNL154      0.1146
    616 H           4.8599    1.3782   21.8595 H     154  UNL154      0.1146
    617 N           2.5254    4.9816    0.2495 N.3   155  UNL155     -0.3437
    618 H           2.3844    5.6272    1.0251 H     155  UNL155      0.1146
    619 H           2.2374    5.4832   -0.5895 H     155  UNL155      0.1146
    620 H           3.5334    4.8552    0.1690 H     155  UNL155      0.1146
    621 N           2.4417    4.3859    2.5747 N.3   156  UNL156     -0.3437
    622 H           2.0000    3.5141    2.2862 H     156  UNL156      0.1146
    623 H           3.1673    4.1260    3.2413 H     156  UNL156      0.1146
    624 H           2.9292    4.7393    1.7526 H     156  UNL156      0.1146
    625 N           4.2207    4.4568    4.2227 N.3   157  UNL157     -0.3437
    626 H           3.2762    4.5730    4.5871 H     157  UNL157      0.1146
    627 H           4.3603    5.2156    3.5571 H     157  UNL157      0.1146
    628 H           4.8482    4.6482    5.0025 H     157  UNL157      0.1146
    629 N           4.0449    4.4233    6.7418 N.3   158  UNL158     -0.3437
    630 H           3.6032    5.1487    6.1789 H     158  UNL158      0.1146
    631 H           4.7705    4.0147    6.1545 H     158  UNL158      0.1146
    632 H           4.5324    4.9088    7.4935 H     158  UNL158      0.1146
    633 N           3.6858    4.7397    8.7298 N.3   159  UNL159     -0.3437
    634 H           4.6541    5.0303    8.8577 H     159  UNL159      0.1146
    635 H           3.2653    5.4293    8.1085 H     159  UNL159      0.1146
    636 H           3.7213    3.8696    8.2006 H     159  UNL159      0.1146
    637 N           3.7267    2.7575   10.8411 N.3   160  UNL160     -0.3437
    638 H           3.7582    2.2297   11.7122 H     160  UNL160      0.1146
    639 H           2.7399    2.9261   10.6504 H     160  UNL160      0.1146
    640 H           4.1320    3.6688   11.0500 H     160  UNL160      0.1146
    641 N           3.7202    4.5871   12.7642 N.3   161  UNL161     -0.3437
    642 H           3.2785    5.3126   12.2012 H     161  UNL161      0.1146
    643 H           4.4458    4.1786   12.1769 H     161  UNL161      0.1146
    644 H           4.2077    5.0727   13.5158 H     161  UNL161      0.1146
    645 N           4.0816    4.2020   15.2448 N.3   162  UNL162     -0.3437
    646 H           4.7763    4.4926   14.5583 H     162  UNL162      0.1146
    647 H           3.3330    4.8916   15.1961 H     162  UNL162      0.1146
    648 H           3.6853    3.3319   14.8924 H     162  UNL162      0.1146
    649 N           3.9427    4.5380   16.8020 N.3   163  UNL163     -0.3437
    650 H           3.5010    4.8286   17.6731 H     163  UNL163      0.1146
    651 H           4.6683    5.2276   16.6113 H     163  UNL163      0.1146
    652 H           4.4302    3.6679   17.0109 H     163  UNL163      0.1146
    653 N           1.7731    4.9435   19.2454 N.3   164  UNL164     -0.3437
    654 H           2.1892    4.7249   20.1495 H     164  UNL164      0.1146
    655 H           2.4971    5.4221   18.7114 H     164  UNL164      0.1146
    656 H           1.6262    4.0488   18.7802 H     164  UNL164      0.1146
    657 N           4.1646    2.9917   21.8002 N.3   165  UNL165     -0.3437
    658 H           3.7229    2.0736   21.7855 H     165  UNL165      0.1146
    659 H           4.8902    2.9430   22.5140 H     165  UNL165      0.1146
    660 H           4.6521    3.0831   20.9100 H     165  UNL165      0.1146
    661 N           3.9777    6.5021   -0.7251 N.3   166  UNL166     -0.3437
    662 H           3.5360    5.6303   -1.0136 H     166  UNL166      0.1146
    663 H           4.7033    6.2422   -0.0585 H     166  UNL166      0.1146
    664 H           4.4652    6.8555   -1.5472 H     166  UNL166      0.1146
    665 N           2.4617    6.9470    2.2543 N.3   167  UNL167     -0.3437
    666 H           1.8402    7.4764    2.8641 H     167  UNL167      0.1146
    667 H           3.3679    6.9333    2.7202 H     167  UNL167      0.1146
    668 H           2.1220    5.9864    2.2726 H     167  UNL167      0.1146
    669 N           5.0200    7.2749    3.8628 N.3   168  UNL168     -0.3437
    670 H           4.3353    6.6295    4.2539 H     168  UNL168      0.1146
    671 H           4.5975    8.2005    3.9186 H     168  UNL168      0.1146
    672 H           5.8026    7.2836    4.5154 H     168  UNL168      0.1146
    673 N           4.0713    6.9044    6.1639 N.3   169  UNL169     -0.3437
    674 H           3.6296    6.3804    5.4099 H     169  UNL169      0.1146
    675 H           4.7969    6.2963    6.5410 H     169  UNL169      0.1146
    676 H           4.5588    7.6805    5.7186 H     169  UNL169      0.1146
    677 N           3.7382    7.2670    8.2080 N.3   170  UNL170     -0.3437
    678 H           3.2965    7.5576    9.0791 H     170  UNL170      0.1146
    679 H           4.4638    7.9566    8.0173 H     170  UNL170      0.1146
    680 H           4.2257    6.3969    8.4169 H     170  UNL170      0.1146
    681 N           4.0595    5.5505   10.7680 N.3   171  UNL171     -0.3437
    682 H           3.6178    4.6787   10.4795 H     171  UNL171      0.1146
    683 H           4.7851    5.2906   11.4346 H     171  UNL171      0.1146
    684 H           4.5470    5.9039    9.9459 H     171  UNL171      0.1146
    685 N           4.4977    6.6129   12.9278 N.3   172  UNL172     -0.3437
    686 H           4.0560    7.1369   12.1737 H     172  UNL172      0.1146
    687 H           5.2233    6.0474   12.4895 H     172  UNL172      0.1146
    688 H           4.9852    7.3010   13.4999 H     172  UNL172      0.1146
    689 N           3.8900    7.3050   14.6980 N.3   173  UNL173     -0.3437
    690 H           3.4483    7.5956   15.5691 H     173  UNL173      0.1146
    691 H           4.6156    7.9946   14.5073 H     173  UNL173      0.1146
    692 H           4.3775    6.4349   14.9069 H     173  UNL173      0.1146
    693 N           3.5510    6.6311   17.1373 N.3   174  UNL174     -0.3437
    694 H           2.7590    6.1785   17.5915 H     174  UNL174      0.1146
    695 H           3.6503    7.5404   17.5863 H     174  UNL174      0.1146
    696 H           4.3739    6.0937   17.4064 H     174  UNL174      0.1146
    697 N           3.9478    7.0474   19.1423 N.3   175  UNL175     -0.3437
    698 H           3.6627    6.5147   19.9629 H     175  UNL175      0.1146
    699 H           4.4013    7.8882   19.4969 H     175  UNL175      0.1146
    700 H           4.6813    6.5007   18.6935 H     175  UNL175      0.1146
    701 N           3.7905    5.1035   21.5360 N.3   176  UNL176     -0.3437
    702 H           3.3488    4.2317   21.2474 H     176  UNL176      0.1146
    703 H           4.5161    4.8436   22.2026 H     176  UNL176      0.1146
    704 H           4.2780    5.4569   20.7139 H     176  UNL176      0.1146
    705 N           2.9193    9.3025   -0.9606 N.3   177  UNL177     -0.3437
    706 H           2.4776   10.0279   -1.5236 H     177  UNL177      0.1146
    707 H           3.6449    8.8939   -1.5480 H     177  UNL177      0.1146
    708 H           3.4068    9.7880   -0.2090 H     177  UNL177      0.1146
    709 N           3.4664    9.7101    2.0490 N.3   178  UNL178     -0.3437
    710 H           3.0247   10.2341    1.2949 H     178  UNL178      0.1146
    711 H           4.1920    9.1446    1.6107 H     178  UNL178      0.1146
    712 H           3.9539   10.3982    2.6211 H     178  UNL178      0.1146
    713 N           2.9738    9.0193    4.4159 N.3   179  UNL179     -0.3437
    714 H           2.5321    8.2736    3.8800 H     179  UNL179      0.1146
    715 H           3.6994    8.5719    4.9743 H     179  UNL179      0.1146
    716 H           3.4613    9.6023    3.7371 H     179  UNL179      0.1146
    717 N           3.4284    9.3739    6.6070 N.3   180  UNL180     -0.3437
    718 H           2.9867    8.5021    6.3185 H     180  UNL180      0.1146
    719 H           4.1540    9.1140    7.2736 H     180  UNL180      0.1146
    720 H           3.9159    9.7273    5.7849 H     180  UNL180      0.1146
    721 N           4.1617    9.9010    9.2432 N.3   181  UNL181     -0.3437
    722 H           3.7200    9.3497    8.5088 H     181  UNL181      0.1146
    723 H           4.8873    9.3071    9.6423 H     181  UNL181      0.1146
    724 H           4.6492   10.6603    8.7698 H     181  UNL181      0.1146
    725 N           3.8284    8.0409   10.8480 N.3   182  UNL182     -0.3437
    726 H           3.3868    7.1228   10.8333 H     182  UNL182      0.1146
    727 H           4.5540    7.9922   11.5618 H     182  UNL182      0.1146
    728 H           4.3159    8.1323    9.9578 H     182  UNL182      0.1146
    729 N           4.2871    9.5883   12.9877 N.3   183  UNL183     -0.3437
    730 H           3.4110    9.6832   13.4995 H     183  UNL183      0.1146
    731 H           4.7220    8.7333   13.3315 H     183  UNL183      0.1146
    732 H           4.0282    9.4021   12.0199 H     183  UNL183      0.1146
    733 N           4.1029   10.5154   15.3235 N.3   184  UNL184     -0.3437
    734 H           3.2885   10.8382   15.8441 H     184  UNL184      0.1146
    735 H           4.8358   10.3630   16.0149 H     184  UNL184      0.1146
    736 H           3.8593    9.5933   14.9646 H     184  UNL184      0.1146
    737 N           3.9334    8.8933   16.9068 N.3   185  UNL185     -0.3437
    738 H           4.3565    8.8074   17.8298 H     185  UNL185      0.1146
    739 H           3.7868    9.8905   16.7568 H     185  UNL185      0.1146
    740 H           4.6519    8.6119   16.2412 H     185  UNL185      0.1146
    741 N           1.6183    9.9435   20.8683 N.3   186  UNL186     -0.3437
    742 H           1.1766   10.2341   21.7394 H     186  UNL186      0.1146
    743 H           2.3439   10.6331   20.6776 H     186  UNL186      0.1146
    744 H           2.1058    9.0734   21.0772 H     186  UNL186      0.1146
    745 N           4.0432    9.3934   22.2247 N.3   187  UNL187     -0.3437
    746 H           4.0937    8.8681   23.0964 H     187  UNL187      0.1146
    747 H           3.9448   10.3719   22.4916 H     187  UNL187      0.1146
    748 H           4.9628    9.3111   21.7934 H     187  UNL187      0.1146
    749 N           3.9074   11.3025   -1.3590 N.3   188  UNL188     -0.3437
    750 H           3.4657   11.5931   -0.4879 H     188  UNL188      0.1146
    751 H           4.6330   11.9921   -1.5497 H     188  UNL188      0.1146
    752 H           4.3949   10.4324   -1.1501 H     188  UNL188      0.1146
    753 N           3.9784   11.8079    1.4720 N.3   189  UNL189     -0.3437
    754 H           4.8642   12.0985    1.8836 H     189  UNL189      0.1146
    755 H           3.7630   12.4975    0.7534 H     189  UNL189      0.1146
    756 H           4.1705   10.9378    0.9776 H     189  UNL189      0.1146
    757 N           4.1237   11.3025    4.1873 N.3   190  UNL190     -0.3437
    758 H           3.6820   11.5931    5.0584 H     190  UNL190      0.1146
    759 H           4.8493   11.9921    3.9966 H     190  UNL190      0.1146
    760 H           4.6112   10.4324    4.3962 H     190  UNL190      0.1146
    761 N           4.0186   11.3463    6.7324 N.3   191  UNL191     -0.3437
    762 H           3.5769   11.6369    7.6035 H     191  UNL191      0.1146
    763 H           4.7442   12.0359    6.5417 H     191  UNL191      0.1146
    764 H           4.5061   10.4762    6.9413 H     191  UNL191      0.1146
    765 N           4.4370   12.8037    8.3454 N.3   192  UNL192     -0.3437
    766 H           4.8947   13.0683    9.2165 H     192  UNL192      0.1146
    767 H           4.7284   11.8460    8.1547 H     192  UNL192      0.1146
    768 H           3.4407   12.7577    8.5543 H     192  UNL192      0.1146
    769 N           3.4492   11.4633   10.6335 N.3   193  UNL193     -0.3437
    770 H           3.0075   11.7539   11.5046 H     193  UNL193      0.1146
    771 H           4.1748   12.1529   10.4428 H     193  UNL193      0.1146
    772 H           3.9367   10.5932   10.8424 H     193  UNL193      0.1146
    773 N           4.3248   11.9071   12.8059 N.3   194  UNL194     -0.3437
    774 H           4.5034   12.1977   11.8457 H     194  UNL194      0.1146
    775 H           3.6822   12.5967   13.1931 H     194  UNL194      0.1146
    776 H           3.7982   11.0370   12.7427 H     194  UNL194      0.1146
    777 N           4.2914   12.2204   14.7842 N.3   195  UNL195     -0.3437
    778 H           3.2876   12.2986   14.9411 H     195  UNL195      0.1146
    779 H           4.5647   13.0668   14.2869 H     195  UNL195      0.1146
    780 H           4.7252   12.2828   15.7041 H     195  UNL195      0.1146
    781 N           4.0529   13.0214   17.4212 N.3   196  UNL196     -0.3437
    782 H           3.4695   12.9715   18.2552 H     196  UNL196      0.1146
    783 H           5.0151   13.0662   17.7537 H     196  UNL196      0.1146
    784 H           3.9578   12.1189   16.9575 H     196  UNL196      0.1146
    785 N           4.0390   11.4632   19.4291 N.3   197  UNL197     -0.3437
    786 H           3.5973   11.7538   20.3002 H     197  UNL197      0.1146
    787 H           4.7646   12.1528   19.2384 H     197  UNL197      0.1146
    788 H           4.5265   10.5931   19.6380 H     197  UNL197      0.1146
    789 N           4.0323   12.3784   22.6858 N.3   198  UNL198     -0.3437
    790 H           4.1757   12.6690   21.7197 H     198  UNL198      0.1146
    791 H           3.4044   13.0680   23.0963 H     198  UNL198      0.1146
    792 H           3.5038   11.5083   22.6419 H     198  UNL198      0.1146
    793 N           4.1988   -0.0409   -1.3590 N.3   199  UNL199     -0.3437
    794 H           3.7571    0.2497   -0.4879 H     199  UNL199      0.1146
    795 H           4.9244    0.6487   -1.5497 H     199  UNL199      0.1146
    796 H           4.6863   -0.9110   -1.1501 H     199  UNL199      0.1146
    797 N           5.3591   -1.8391    0.9978 N.3   200  UNL200     -0.3437
    798 H           5.1577   -1.0009    1.5411 H     200  UNL200      0.1146
    799 H           5.1538   -1.6016    0.0283 H     200  UNL200      0.1146
    800 H           6.3685   -1.9700    1.0471 H     200  UNL200      0.1146
    801 N           5.7751   -1.0960    3.1886 N.3   201  UNL201     -0.3437
    802 H           5.3334   -1.9678    2.9001 H     201  UNL201      0.1146
    803 H           6.5007   -1.3560    3.8552 H     201  UNL201      0.1146
    804 H           6.2626   -0.7427    2.3665 H     201  UNL201      0.1146
    805 N           5.9562   -0.8841    6.8209 N.3   202  UNL202     -0.3437
    806 H           5.5145   -1.6298    6.2850 H     202  UNL202      0.1146
    807 H           6.6818   -1.3314    7.3793 H     202  UNL202      0.1146
    808 H           6.4437   -0.3011    6.1421 H     202  UNL202      0.1146
    809 N           5.5969   -1.5994    8.7300 N.3   203  UNL203     -0.3437
    810 H           5.3730   -1.8948    7.7808 H     203  UNL203      0.1146
    811 H           6.5255   -1.9695    8.9277 H     203  UNL203      0.1146
    812 H           5.7006   -0.5864    8.6918 H     203  UNL203      0.1146
    813 N           6.0262   -1.0960   10.7330 N.3   204  UNL204     -0.3437
    814 H           5.5845   -1.9678   10.4445 H     204  UNL204      0.1146
    815 H           6.7518   -1.3560   11.3996 H     204  UNL204      0.1146
    816 H           6.5137   -0.7427    9.9109 H     204  UNL204      0.1146
    817 N           5.9709   -1.2228   13.1939 N.3   205  UNL205     -0.3437
    818 H           5.5292   -1.9685   12.6580 H     205  UNL205      0.1146
    819 H           6.6965   -1.6702   13.7523 H     205  UNL205      0.1146
    820 H           6.4584   -0.6398   12.5151 H     205  UNL205      0.1146
    821 N           5.5857   -0.9295   15.5314 N.3   206  UNL206     -0.3437
    822 H           6.1259   -1.2621   16.3288 H     206  UNL206      0.1146
    823 H           6.0922   -0.1248   15.1649 H     206  UNL206      0.1146
    824 H           5.6591   -1.6553   14.8199 H     206  UNL206      0.1146
    825 N           5.4144    0.4604   17.1014 N.3   207  UNL207     -0.3437
    826 H           5.7690   -0.3660   17.5805 H     207  UNL207      0.1146
    827 H           5.4479    1.2166   17.7836 H     207  UNL207      0.1146
    828 H           6.1073    0.6922   16.3911 H     207  UNL207      0.1146
    829 N           6.0220   -1.9674   19.0612 N.3   208  UNL208     -0.3437
    830 H           6.1304   -1.5100   19.9653 H     208  UNL208      0.1146
    831 H           5.3785   -1.3850   18.5272 H     208  UNL208      0.1146
    832 H           6.9250   -1.8875   18.5960 H     208  UNL208      0.1146
    833 N           5.9944   -1.0376   22.3591 N.3   209  UNL209     -0.3437
    834 H           6.3700   -1.6311   23.0973 H     209  UNL209      0.1146
    835 H           6.3457   -0.0996   22.5468 H     209  UNL209      0.1146
    836 H           6.4474   -1.3399   21.4978 H     209  UNL209      0.1146
    837 N           5.8015    0.5916    0.5819 N.3   210  UNL210     -0.3437
    838 H           5.3598   -0.2802    0.2934 H     210  UNL210      0.1146
    839 H           6.5271    0.3317    1.2485 H     210  UNL210      0.1146
    840 H           6.2890    0.9449   -0.2402 H     210  UNL210      0.1146
    841 N           6.2427    1.7404    1.9704 N.3   211  UNL211     -0.3437
    842 H           5.4801    1.9341    1.3229 H     211  UNL211      0.1146
    843 H           6.4476    2.6237    2.4354 H     211  UNL211      0.1146
    844 H           5.8540    1.1293    2.6873 H     211  UNL211      0.1146
    845 N           5.9861    0.4705    4.4523 N.3   212  UNL212     -0.3437
    846 H           5.0763    0.0566    4.6504 H     212  UNL212      0.1146
    847 H           6.0732    1.2700    5.0781 H     212  UNL212      0.1146
    848 H           6.6780   -0.2086    4.7663 H     212  UNL212      0.1146
    849 N           3.4657    2.1653    6.7848 N.3   213  UNL213     -0.3437
    850 H           3.0240    2.4559    7.6559 H     213  UNL213      0.1146
    851 H           4.1913    2.8549    6.5942 H     213  UNL213      0.1146
    852 H           3.9532    1.2952    6.9937 H     213  UNL213      0.1146
    853 N           6.1608    1.1372    8.5295 N.3   214  UNL214     -0.3437
    854 H           5.7191    1.4278    9.4006 H     214  UNL214      0.1146
    855 H           6.8864    1.8268    8.3388 H     214  UNL214      0.1146
    856 H           6.6483    0.2671    8.7384 H     214  UNL214      0.1146
    857 N           4.9240    0.3415   10.8500 N.3   215  UNL215     -0.3437
    858 H           5.7466    0.3435   11.4515 H     215  UNL215      0.1146
    859 H           4.5034    1.2646   10.9463 H     215  UNL215      0.1146
    860 H           5.2748    0.2910    9.8946 H     215  UNL215      0.1146
    861 N           4.6313    2.2529   14.0239 N.3   216  UNL216     -0.3437
    862 H           5.5996    2.5435   14.1518 H     216  UNL216      0.1146
    863 H           4.2108    2.9425   13.4026 H     216  UNL216      0.1146
    864 H           4.6668    1.3828   13.4947 H     216  UNL216      0.1146
    865 N           5.2800    2.1086   15.7318 N.3   217  UNL217     -0.3437
    866 H           5.4078    2.0226   16.7391 H     217  UNL217      0.1146
    867 H           5.1849    3.1058   15.5448 H     217  UNL217      0.1146
    868 H           6.1646    1.8272   15.3115 H     217  UNL217      0.1146
    869 N           3.5215    2.4664   17.7270 N.3   218  UNL218     -0.3437
    870 H           4.4897    2.7570   17.8549 H     218  UNL218      0.1146
    871 H           3.1010    3.1560   17.1057 H     218  UNL218      0.1146
    872 H           3.5569    1.5963   17.1978 H     218  UNL218      0.1146
    873 N           5.7694    1.4108   19.7073 N.3   219  UNL219     -0.3437
    874 H           5.3277    2.1363   19.1443 H     219  UNL219      0.1146
    875 H           6.4950    1.0023   19.1199 H     219  UNL219      0.1146
    876 H           6.2569    1.8964   20.4589 H     219  UNL219      0.1146
    877 N           6.3687    2.3172   22.7025 N.3   220  UNL220     -0.3437
    878 H           5.7104    1.6463   23.0960 H     220  UNL220      0.1146
    879 H           7.2913    2.0269   23.0235 H     220  UNL220      0.1146
    880 H           6.3601    2.1616   21.6955 H     220  UNL220      0.1146
    881 N           3.8999    2.2577   -0.1684 N.3   221  UNL221     -0.3437
    882 H           3.1357    2.8500    0.1532 H     221  UNL221      0.1146
    883 H           4.7521    2.6680    0.2107 H     221  UNL221      0.1146
    884 H           3.7824    1.3644    0.3078 H     221  UNL221      0.1146
    885 N           5.0535    4.6507    1.4174 N.3   222  UNL222     -0.3437
    886 H           4.6118    3.9050    0.8815 H     222  UNL222      0.1146
    887 H           5.7791    4.2033    1.9758 H     222  UNL222      0.1146
    888 H           5.5410    5.2337    0.7386 H     222  UNL222      0.1146
    889 N           6.2308    2.7036    4.2902 N.3   223  UNL223     -0.3437
    890 H           5.7891    3.4290    3.7273 H     223  UNL223      0.1146
    891 H           6.9564    2.2950    3.7029 H     223  UNL223      0.1146
    892 H           6.7183    3.1891    5.0419 H     223  UNL223      0.1146
    893 N           6.0976    4.4276    6.6716 N.3   224  UNL224     -0.3437
    894 H           6.9151    4.0444    7.1442 H     224  UNL224      0.1146
    895 H           6.1339    5.4350    6.8202 H     224  UNL224      0.1146
    896 H           6.2566    4.2847    5.6753 H     224  UNL224      0.1146
    897 N           6.1776    3.2871    8.4010 N.3   225  UNL225     -0.3437
    898 H           5.4928    2.6417    8.7921 H     225  UNL225      0.1146
    899 H           5.7550    4.2127    8.4568 H     225  UNL225      0.1146
    900 H           6.9601    3.2959    9.0537 H     225  UNL225      0.1146
    901 N           5.6525    2.8797   10.9261 N.3   226  UNL226     -0.3437
    902 H           5.2108    3.4037   10.1720 H     226  UNL226      0.1146
    903 H           6.3781    2.3142   10.4877 H     226  UNL226      0.1146
    904 H           6.1400    3.5678   11.4982 H     226  UNL226      0.1146
    905 N           5.9126    1.6571   12.4508 N.3   227  UNL227     -0.3437
    906 H           5.9442    1.1293   13.3219 H     227  UNL227      0.1146
    907 H           4.9259    1.8257   12.2601 H     227  UNL227      0.1146
    908 H           6.3180    2.5684   12.6597 H     227  UNL227      0.1146
    909 N           6.1572    5.1504   15.0723 N.3   228  UNL228     -0.3437
    910 H           5.3429    5.4732   15.5929 H     228  UNL228      0.1146
    911 H           6.8902    4.9981   15.7637 H     228  UNL228      0.1146
    912 H           5.9137    4.2283   14.7134 H     228  UNL228      0.1146
    913 N           5.6992    4.6111   17.2315 N.3   229  UNL229     -0.3437
    914 H           5.2575    4.9017   18.1026 H     229  UNL229      0.1146
    915 H           6.4248    5.3007   17.0408 H     229  UNL229      0.1146
    916 H           6.1867    3.7410   17.4404 H     229  UNL229      0.1146
    917 N           3.7608    4.6800   19.4852 N.3   230  UNL230     -0.3437
    918 H           3.3191    3.9343   18.9492 H     230  UNL230      0.1146
    919 H           4.4864    4.2326   20.0436 H     230  UNL230      0.1146
    920 H           4.2483    5.2630   18.8063 H     230  UNL230      0.1146
    921 N           6.0813    4.5871   22.2754 N.3   231  UNL231     -0.3437
    922 H           5.7962    4.0544   23.0960 H     231  UNL231      0.1146
    923 H           6.5349    5.4279   22.6300 H     231  UNL231      0.1146
    924 H           6.8149    4.0404   21.8266 H     231  UNL231      0.1146
    925 N           4.9134    4.5681   -0.8705 N.3   232  UNL232     -0.3437
    926 H           4.4717    3.8225   -1.4065 H     232  UNL232      0.1146
    927 H           5.6390    4.1208   -0.3121 H     232  UNL232      0.1146
    928 H           5.4009    5.1511   -1.5494 H     232  UNL232      0.1146
    929 N           4.1515    7.3313    1.3021 N.3   233  UNL233     -0.3437
    930 H           4.3302    7.6219    0.3419 H     233  UNL233      0.1146
    931 H           3.5089    8.0209    1.6893 H     233  UNL233      0.1146
    932 H           3.6249    6.4612    1.2388 H     233  UNL233      0.1146
    933 N           5.9431    5.1266    3.8059 N.3   234  UNL234     -0.3437
    934 H           6.1957    5.7373    4.5815 H     234  UNL234      0.1146
    935 H           5.9928    5.7029    2.9669 H     234  UNL234      0.1146
    936 H           6.6987    4.4477    3.7254 H     234  UNL234      0.1146
    937 N           6.3245    7.3288    6.2966 N.3   235  UNL235     -0.3437
    938 H           5.4914    7.4156    6.8770 H     235  UNL235      0.1146
    939 H           7.0771    7.0517    6.9253 H     235  UNL235      0.1146
    940 H           6.1597    6.5295    5.6864 H     235  UNL235      0.1146
    941 N           5.7566    6.6454    8.5868 N.3   236  UNL236     -0.3437
    942 H           6.1352    6.8287    9.5149 H     236  UNL236      0.1146
    943 H           6.3586    7.1454    7.9340 H     236  UNL236      0.1146
    944 H           5.9132    5.6541    8.4103 H     236  UNL236      0.1146
    945 N           6.4833    5.4216   10.6828 N.3   237  UNL237     -0.3437
    946 H           6.9090    5.7122    9.8038 H     237  UNL237      0.1146
    947 H           5.7614    6.1112   10.8868 H     237  UNL237      0.1146
    948 H           5.9921    4.5515   10.4829 H     237  UNL237      0.1146
    949 N           5.9008    4.7388   12.9132 N.3   238  UNL238     -0.3437
    950 H           6.3169    5.3191   13.6402 H     238  UNL238      0.1146
    951 H           6.6247    4.6103   12.2077 H     238  UNL238      0.1146
    952 H           5.7538    3.8228   13.3348 H     238  UNL238      0.1146
    953 N           6.2127    7.3299   15.2427 N.3   239  UNL239     -0.3437
    954 H           5.2619    7.4689   15.5819 H     239  UNL239      0.1146
    955 H           6.6662    6.7190   15.9206 H     239  UNL239      0.1146
    956 H           6.1284    6.7849   14.3859 H     239  UNL239      0.1146
    957 N           5.7567    7.2966   17.1145 N.3   240  UNL240     -0.3437
    958 H           5.1353    7.3833   17.9174 H     240  UNL240      0.1146
    959 H           6.6629    7.0195   17.4894 H     240  UNL240      0.1146
    960 H           5.4170    6.4973   16.5815 H     240  UNL240      0.1146
    961 N           6.6163    5.5308   18.5908 N.3   241  UNL241     -0.3437
    962 H           6.2864    5.7341   19.5333 H     241  UNL241      0.1146
    963 H           7.3646    6.1972   18.4053 H     241  UNL241      0.1146
    964 H           7.0614    4.6154   18.6403 H     241  UNL241      0.1146
    965 N           4.3819    7.0145   21.3985 N.3   242  UNL242     -0.3437
    966 H           4.7089    6.5990   22.2696 H     242  UNL242      0.1146
    967 H           3.4754    6.5899   21.2078 H     242  UNL242      0.1146
    968 H           4.1947    7.9941   21.6074 H     242  UNL242      0.1146
    969 N           6.8369    9.6225   -1.4189 N.3   243  UNL243     -0.3437
    970 H           5.8332    9.4623   -1.4924 H     243  UNL243      0.1146
    971 H           7.0095    9.8822   -0.4487 H     243  UNL243      0.1146
    972 H           7.2768    8.7125   -1.5485 H     243  UNL243      0.1146
    973 N           6.5332    7.3797   -0.6730 N.3   244  UNL244     -0.3437
    974 H           6.0997    7.6703   -1.5482 H     244  UNL244      0.1146
    975 H           6.2518    8.0693    0.0224 H     244  UNL244      0.1146
    976 H           6.0741    6.5096   -0.4075 H     244  UNL244      0.1146
    977 N           5.8248    9.7390    2.4615 N.3   245  UNL245     -0.3437
    978 H           5.3831   10.0296    3.3326 H     245  UNL245      0.1146
    979 H           6.5504   10.4286    2.2708 H     245  UNL245      0.1146
    980 H           6.3123    8.8689    2.6704 H     245  UNL245      0.1146
    981 N           6.6904    9.0480    4.3105 N.3   246  UNL246     -0.3437
    982 H           6.3367    9.8487    4.8321 H     246  UNL246      0.1146
    983 H           7.4187    9.4116    3.6975 H     246  UNL246      0.1146
    984 H           7.1656    8.4570    4.9911 H     246  UNL246      0.1146
    985 N           5.7576    9.7442    6.8165 N.3   247  UNL247     -0.3437
    986 H           5.3159    8.9986    6.2805 H     247  UNL247      0.1146
    987 H           6.4832    9.2969    7.3749 H     247  UNL247      0.1146
    988 H           6.2451   10.3272    6.1376 H     247  UNL247      0.1146
    989 N           5.8831    8.1997   10.7826 N.3   248  UNL248     -0.3437
    990 H           5.4414    7.3279   10.4941 H     248  UNL248      0.1146
    991 H           6.6087    7.9397   11.4492 H     248  UNL248      0.1146
    992 H           6.3706    8.5530    9.9605 H     248  UNL248      0.1146
    993 N           6.3653    9.2430   13.0271 N.3   249  UNL249     -0.3437
    994 H           5.9236    9.7670   12.2730 H     249  UNL249      0.1146
    995 H           7.0909    8.6775   12.5887 H     249  UNL249      0.1146
    996 H           6.8528    9.9311   13.5992 H     249  UNL249      0.1146
    997 N           5.9288    9.7395   15.0590 N.3   250  UNL250     -0.3437
    998 H           6.8910   10.0301   14.8916 H     250  UNL250      0.1146
    999 H           5.3418   10.4291   14.5918 H     250  UNL250      0.1146
   1000 H           5.8044    8.8694   14.5434 H     250  UNL250      0.1146
   1001 N           5.9154    9.5842   17.2635 N.3   251  UNL251     -0.3437
   1002 H           5.4737    9.8748   18.1346 H     251  UNL251      0.1146
   1003 H           6.6410   10.2738   17.0728 H     251  UNL251      0.1146
   1004 H           6.4029    8.7141   17.4724 H     251  UNL251      0.1146
   1005 N           3.4309    9.2764   19.4732 N.3   252  UNL252     -0.3437
   1006 H           3.7626    8.9434   20.3774 H     252  UNL252      0.1146
   1007 H           4.2648    9.5167   18.9392 H     252  UNL252      0.1146
   1008 H           3.0232    8.4667   19.0080 H     252  UNL252      0.1146
   1009 N           5.9591    8.0452   19.2811 N.3   253  UNL253     -0.3437
   1010 H           5.5174    8.3358   20.1522 H     253  UNL253      0.1146
   1011 H           6.6847    8.7348   19.0904 H     253  UNL253      0.1146
   1012 H           6.4466    7.1751   19.4900 H     253  UNL253      0.1146
   1013 N           6.3890   12.8118   -1.0371 N.3   254  UNL254     -0.3437
   1014 H           6.9049   12.9275   -0.1660 H     254  UNL254      0.1146
   1015 H           6.3807   11.8108   -1.2278 H     254  UNL254      0.1146
   1016 H           5.4245   13.0658   -0.8282 H     254  UNL254      0.1146
   1017 N           6.2771   13.0238    2.1344 N.3   255  UNL255     -0.3437
   1018 H           5.4711   12.9740    2.7558 H     255  UNL255      0.1146
   1019 H           7.0959   13.0687    2.7394 H     255  UNL255      0.1146
   1020 H           6.3250   12.1214    1.6635 H     255  UNL255      0.1146
   1021 N           6.3327   13.0238    4.3845 N.3   256  UNL256     -0.3437
   1022 H           5.5267   12.9740    5.0060 H     256  UNL256      0.1146
   1023 H           7.1515   13.0687    4.9895 H     256  UNL256      0.1146
   1024 H           6.3806   12.1214    3.9136 H     256  UNL256      0.1146
   1025 N           6.2855   12.7355    6.5980 N.3   257  UNL257     -0.3437
   1026 H           5.7437   12.5135    7.4321 H     257  UNL257      0.1146
   1027 H           7.1902   13.0659    6.9306 H     257  UNL257      0.1146
   1028 H           6.4645   11.8459    6.1344 H     257  UNL257      0.1146
   1029 N           6.0687   11.2376    8.7291 N.3   258  UNL258     -0.3437
   1030 H           6.8008   10.7835    9.2733 H     258  UNL258      0.1146
   1031 H           6.1771   12.2377    8.8918 H     258  UNL258      0.1146
   1032 H           6.3099   11.0845    7.7509 H     258  UNL258      0.1146
   1033 N           5.9275   10.9117   11.0208 N.3   259  UNL259     -0.3437
   1034 H           6.8957   11.2023   11.1487 H     259  UNL259      0.1146
   1035 H           5.5070   11.6013   10.3995 H     259  UNL259      0.1146
   1036 H           5.9629   10.0416   10.4916 H     259  UNL259      0.1146
   1037 N           6.1890   12.7355   12.7255 N.3   260  UNL260     -0.3437
   1038 H           5.6472   12.5135   13.5595 H     260  UNL260      0.1146
   1039 H           7.0938   13.0659   13.0580 H     260  UNL260      0.1146
   1040 H           6.3681   11.8459   12.2618 H     260  UNL260      0.1146
   1041 N           6.6369   12.3775   14.7537 N.3   261  UNL261     -0.3437
   1042 H           6.1952   12.6681   15.6248 H     261  UNL261      0.1146
   1043 H           7.3625   13.0671   14.5630 H     261  UNL261      0.1146
   1044 H           7.1244   11.5074   14.9626 H     261  UNL261      0.1146
   1045 N           6.1341   12.2365   17.0504 N.3   262  UNL262     -0.3437
   1046 H           6.4397   12.6679   17.9215 H     262  UNL262      0.1146
   1047 H           6.7984   11.4876   16.8597 H     262  UNL262      0.1146
   1048 H           5.2478   11.7791   17.2593 H     262  UNL262      0.1146
   1049 N           6.1321   12.3784   19.8717 N.3   263  UNL263     -0.3437
   1050 H           7.1004   12.6690   19.9996 H     263  UNL263      0.1146
   1051 H           5.7116   13.0680   19.2503 H     263  UNL263      0.1146
   1052 H           6.1676   11.5083   19.3425 H     263  UNL263      0.1146
   1053 N           5.8041   11.3025   21.4278 N.3   264  UNL264     -0.3437
   1054 H           5.3624   11.5931   22.2989 H     264  UNL264      0.1146
   1055 H           6.5297   11.9921   21.2371 H     264  UNL264      0.1146
   1056 H           6.2916   10.4324   21.6367 H     264  UNL264      0.1146
   1057 N           6.9681   -1.2012   -1.1597 N.3   265  UNL265     -0.3437
   1058 H           6.5264   -0.6634   -0.4153 H     265  UNL265      0.1146
   1059 H           7.6937   -0.6001   -1.5478 H     265  UNL265      0.1146
   1060 H           7.4556   -1.9690   -0.7002 H     265  UNL265      0.1146
   1061 N           8.1664   -1.6085    1.7615 N.3   266  UNL266     -0.3437
   1062 H           7.9636   -0.6099    1.7644 H     266  UNL266      0.1146
   1063 H           7.7982   -1.9673    0.8817 H     266  UNL266      0.1146
   1064 H           9.1800   -1.6890    1.6955 H     266  UNL266      0.1146
   1065 N           8.0964   -0.9705    3.4526 N.3   267  UNL267     -0.3437
   1066 H           7.7146   -0.7118    4.3612 H     267  UNL267      0.1146
   1067 H           9.0018   -0.5076    3.3862 H     267  UNL267      0.1146
   1068 H           8.2946   -1.9687    3.5050 H     267  UNL267      0.1146
   1069 N           8.0079   -0.3537    6.6924 N.3   268  UNL268     -0.3437
   1070 H           7.5662   -0.9050    5.9580 H     268  UNL268      0.1146
   1071 H           8.7336   -0.9475    7.0915 H     268  UNL268      0.1146
   1072 H           8.4955    0.4056    6.2189 H     268  UNL268      0.1146
   1073 N           8.2585   -1.4887    8.5600 N.3   269  UNL269     -0.3437
   1074 H           7.6426   -0.8402    8.0717 H     269  UNL269      0.1146
   1075 H           8.7922   -1.9682    7.8363 H     269  UNL269      0.1146
   1076 H           8.9283   -0.9121    9.0672 H     269  UNL269      0.1146
   1077 N           8.1659   -1.2707   10.8101 N.3   270  UNL270     -0.3437
   1078 H           7.7242   -1.1091    9.9062 H     270  UNL270      0.1146
   1079 H           8.8915   -1.9675   10.6476 H     270  UNL270      0.1146
   1080 H           8.6534   -0.4067   11.0430 H     270  UNL270      0.1146
   1081 N           8.5669   -1.1801   13.0744 N.3   271  UNL271     -0.3437
   1082 H           8.0592   -1.9692   12.6771 H     271  UNL271      0.1146
   1083 H           9.4586   -1.5535   13.3967 H     271  UNL271      0.1146
   1084 H           8.7863   -0.5648   12.2924 H     271  UNL271      0.1146
   1085 N           7.4719   -0.5438   14.9325 N.3   272  UNL272     -0.3437
   1086 H           7.8219   -0.2300   15.8366 H     272  UNL272      0.1146
   1087 H           7.2758    0.3016   14.3985 H     272  UNL272      0.1146
   1088 H           8.2591   -0.9935   14.4673 H     272  UNL272      0.1146
   1089 N           8.3610   -1.1345   17.3170 N.3   273  UNL273     -0.3437
   1090 H           8.8118   -1.9683   17.6911 H     273  UNL273      0.1146
   1091 H           9.0324   -0.3766   17.4321 H     273  UNL273      0.1146
   1092 H           8.2785   -1.2864   16.3128 H     273  UNL273      0.1146
   1093 N           7.8036    0.0167   19.8532 N.3   274  UNL274     -0.3437
   1094 H           8.2197   -0.2019   20.7573 H     274  UNL274      0.1146
   1095 H           8.5276    0.4954   19.3191 H     274  UNL274      0.1146
   1096 H           7.6567   -0.8779   19.3879 H     274  UNL274      0.1146
   1097 N           8.0160   -1.1345   22.5305 N.3   275  UNL275     -0.3437
   1098 H           8.1727   -1.9683   23.0949 H     275  UNL275      0.1146
   1099 H           8.5016   -0.3766   23.0082 H     275  UNL275      0.1146
   1100 H           8.5213   -1.2864   21.6587 H     275  UNL275      0.1146
   1101 N           6.0169    2.5392   -0.7251 N.3   276  UNL276     -0.3437
   1102 H           5.5752    1.6674   -1.0136 H     276  UNL276      0.1146
   1103 H           6.7425    2.2792   -0.0585 H     276  UNL276      0.1146
   1104 H           6.5044    2.8925   -1.5472 H     276  UNL276      0.1146
   1105 N           8.2155    1.9739    2.3911 N.3   277  UNL277     -0.3437
   1106 H           7.7738    2.2484    1.5149 H     277  UNL277      0.1146
   1107 H           8.9411    1.3032    2.1419 H     277  UNL277      0.1146
   1108 H           8.7030    2.8016    2.7313 H     277  UNL277      0.1146
   1109 N           7.7934    0.8381    4.3952 N.3   278  UNL278     -0.3437
   1110 H           8.1527    1.7565    4.6518 H     278  UNL278      0.1146
   1111 H           8.1061    0.6710    3.4399 H     278  UNL278      0.1146
   1112 H           8.2950    0.1679    4.9762 H     278  UNL278      0.1146
   1113 N           5.6464    1.9520    6.7811 N.3   279  UNL279     -0.3437
   1114 H           6.5321    2.2426    7.1927 H     279  UNL279      0.1146
   1115 H           5.4309    2.6416    6.0625 H     279  UNL279      0.1146
   1116 H           5.8384    1.0819    6.2867 H     279  UNL279      0.1146
   1117 N           8.0913    1.1270    8.4003 N.3   280  UNL280     -0.3437
   1118 H           8.3699    1.7126    9.1862 H     280  UNL280      0.1146
   1119 H           8.8601    1.1684    7.7327 H     280  UNL280      0.1146
   1120 H           8.0771    0.1712    8.7533 H     280  UNL280      0.1146
   1121 N           7.5902    0.9641   10.5084 N.3   281  UNL281     -0.3437
   1122 H           7.1485    1.4881    9.7543 H     281  UNL281      0.1146
   1123 H           8.3158    0.3986   10.0700 H     281  UNL281      0.1146
   1124 H           8.0777    1.6522   11.0805 H     281  UNL281      0.1146
   1125 N           8.0402    0.7368   12.9131 N.3   282  UNL282     -0.3437
   1126 H           7.5985   -0.0089   12.3772 H     282  UNL282      0.1146
   1127 H           8.7658    0.2895   13.4715 H     282  UNL282      0.1146
   1128 H           8.5277    1.3198   12.2343 H     282  UNL282      0.1146
   1129 N           7.8617    1.6591   14.9091 N.3   283  UNL283     -0.3437
   1130 H           7.4200    2.3846   14.3461 H     283  UNL283      0.1146
   1131 H           8.5873    1.2506   14.3217 H     283  UNL283      0.1146
   1132 H           8.3492    2.1447   15.6607 H     283  UNL283      0.1146
   1133 N           7.4034    0.6563   17.3369 N.3   284  UNL284     -0.3437
   1134 H           6.9617   -0.2155   17.0484 H     284  UNL284      0.1146
   1135 H           8.1290    0.3964   18.0035 H     284  UNL284      0.1146
   1136 H           7.8909    1.0096   16.5148 H     284  UNL284      0.1146
   1137 N           8.2575    2.5005   19.5809 N.3   285  UNL285     -0.3437
   1138 H           8.0960    2.5144   18.5748 H     285  UNL285      0.1146
   1139 H           8.3446    3.4752   19.8649 H     285  UNL285      0.1146
   1140 H           7.3922    2.1623   19.9996 H     285  UNL285      0.1146
   1141 N           7.5667    1.1287   21.7318 N.3   286  UNL286     -0.3437
   1142 H           7.1250    0.2569   21.4433 H     286  UNL286      0.1146
   1143 H           8.2923    0.8688   22.3984 H     286  UNL286      0.1146
   1144 H           8.0542    1.4820   20.9097 H     286  UNL286      0.1146
   1145 N           7.1355    4.5661   -1.3948 N.3   287  UNL287     -0.3437
   1146 H           6.6817    5.2718   -0.8166 H     287  UNL287      0.1146
   1147 H           8.0867    4.8979   -1.5483 H     287  UNL287      0.1146
   1148 H           7.2187    3.7354   -0.8106 H     287  UNL287      0.1146
   1149 N           7.8799    4.9114    2.3245 N.3   288  UNL288     -0.3437
   1150 H           7.8207    3.9001    2.2145 H     288  UNL288      0.1146
   1151 H           8.4282    5.0705    3.1686 H     288  UNL288      0.1146
   1152 H           8.4528    5.2451    1.5506 H     288  UNL288      0.1146
   1153 N           8.2066    3.1628    4.5852 N.3   289  UNL289     -0.3437
   1154 H           7.7649    3.6868    3.8311 H     289  UNL289      0.1146
   1155 H           8.9322    2.5973    4.1469 H     289  UNL289      0.1146
   1156 H           8.6941    3.8509    5.1573 H     289  UNL289      0.1146
   1157 N           8.3995    4.2315    6.8237 N.3   290  UNL290     -0.3437
   1158 H           7.9578    4.7554    6.0696 H     290  UNL290      0.1146
   1159 H           9.1251    3.6660    6.3854 H     290  UNL290      0.1146
   1160 H           8.8870    4.9195    7.3958 H     290  UNL290      0.1146
   1161 N           7.9933    4.3279    8.6615 N.3   291  UNL291     -0.3437
   1162 H           7.5515    4.8239    7.8887 H     291  UNL291      0.1146
   1163 H           8.7189    3.7467    8.2442 H     291  UNL291      0.1146
   1164 H           8.4808    5.0365    9.2080 H     291  UNL291      0.1146
   1165 N           7.7203    3.5798   10.7924 N.3   292  UNL292     -0.3437
   1166 H           7.5792    4.2255   11.5680 H     292  UNL292      0.1146
   1167 H           7.4323    4.0814    9.9535 H     292  UNL292      0.1146
   1168 H           8.7282    3.4535   10.7119 H     292  UNL292      0.1146
   1169 N           7.9084    2.6598   12.8112 N.3   293  UNL293     -0.3437
   1170 H           7.4667    1.9141   12.2753 H     293  UNL293      0.1146
   1171 H           8.6340    2.2125   13.3696 H     293  UNL293      0.1146
   1172 H           8.3959    3.2428   12.1324 H     293  UNL293      0.1146
   1173 N           7.7506    4.1883   15.2247 N.3   294  UNL294     -0.3437
   1174 H           7.3089    4.1883   14.3064 H     294  UNL294      0.1146
   1175 H           8.4762    3.4738   15.1874 H     294  UNL294      0.1146
   1176 H           8.2381    5.0798   15.3019 H     294  UNL294      0.1146
   1177 N           6.8692    2.7192   16.7397 N.3   295  UNL295     -0.3437
   1178 H           7.7550    3.0098   17.1513 H     295  UNL295      0.1146
   1179 H           6.6537    3.4088   16.0211 H     295  UNL295      0.1146
   1180 H           7.0613    1.8491   16.2453 H     295  UNL295      0.1146
   1181 N           6.0339    3.7983   19.9541 N.3   296  UNL296     -0.3437
   1182 H           6.8387    4.3569   20.2345 H     296  UNL296      0.1146
   1183 H           5.6778    4.2271   19.1010 H     296  UNL296      0.1146
   1184 H           6.4047    2.8901   19.6783 H     296  UNL296      0.1146
   1185 N           8.4615    3.1626   21.7932 N.3   297  UNL297     -0.3437
   1186 H           7.5517    2.9430   21.3903 H     297  UNL297      0.1146
   1187 H           8.5486    2.5797   22.6245 H     297  UNL297      0.1146
   1188 H           9.1534    2.8133   21.1316 H     297  UNL297      0.1146
   1189 N           7.7449    4.8046    0.2342 N.3   298  UNL298     -0.3437
   1190 H           7.3032    5.3424    0.9785 H     298  UNL298      0.1146
   1191 H           8.4706    5.4057   -0.1540 H     298  UNL298      0.1146
   1192 H           8.2325    4.0368    0.6936 H     298  UNL298      0.1146
   1193 N           5.9086    6.7559    1.4291 N.3   299  UNL299     -0.3437
   1194 H           5.4669    7.0465    2.3002 H     299  UNL299      0.1146
   1195 H           6.6342    7.4455    1.2384 H     299  UNL299      0.1146
   1196 H           6.3961    5.8858    1.6380 H     299  UNL299      0.1146
   1197 N           7.9582    5.1240    4.6496 N.3   300  UNL300     -0.3437
   1198 H           7.5165    5.6480    3.8954 H     300  UNL300      0.1146
   1199 H           8.6838    4.5585    4.2112 H     300  UNL300      0.1146
   1200 H           8.4457    5.8121    5.2216 H     300  UNL300      0.1146
   1201 N           8.5952    6.7866    6.6516 N.3   301  UNL301     -0.3437
   1202 H           8.1535    7.0611    5.7753 H     301  UNL301      0.1146
   1203 H           9.3208    6.1159    6.4023 H     301  UNL301      0.1146
   1204 H           9.0827    7.6142    6.9917 H     301  UNL301      0.1146
   1205 N           7.8064    6.8512    8.7639 N.3   302  UNL302     -0.3437
   1206 H           7.3647    6.1055    8.2280 H     302  UNL302      0.1146
   1207 H           8.5320    6.4038    9.3223 H     302  UNL302      0.1146
   1208 H           8.2939    7.4342    8.0851 H     302  UNL302      0.1146
   1209 N           8.4315    7.1591   10.8849 N.3   303  UNL303     -0.3437
   1210 H           7.9898    6.2873   10.5964 H     303  UNL303      0.1146
   1211 H           9.1571    6.8991   11.5515 H     303  UNL303      0.1146
   1212 H           8.9190    7.5124   10.0628 H     303  UNL303      0.1146
   1213 N           8.2716    5.0129   12.9762 N.3   304  UNL304     -0.3437
   1214 H           8.1550    5.3035   12.0065 H     304  UNL304      0.1146
   1215 H           7.7741    5.7025   13.5379 H     304  UNL304      0.1146
   1216 H           7.7501    4.1428   13.0733 H     304  UNL304      0.1146
   1217 N           7.9670    6.6392   14.9236 N.3   305  UNL305     -0.3437
   1218 H           7.5253    7.1632   14.1695 H     305  UNL305      0.1146
   1219 H           8.6926    6.0737   14.4852 H     305  UNL305      0.1146
   1220 H           8.4545    7.3273   15.4957 H     305  UNL305      0.1146
   1221 N           8.1570    5.5417   17.0477 N.3   306  UNL306     -0.3437
   1222 H           7.7153    4.6699   16.7592 H     306  UNL306      0.1146
   1223 H           8.8826    5.2818   17.7143 H     306  UNL306      0.1146
   1224 H           8.6445    5.8951   16.2256 H     306  UNL306      0.1146
   1225 N           7.9318    6.9421   19.9650 N.3   307  UNL307     -0.3437
   1226 H           8.4807    6.2967   20.5311 H     307  UNL307      0.1146
   1227 H           8.0908    7.8677   20.3604 H     307  UNL307      0.1146
   1228 H           8.3697    6.9509   19.0449 H     307  UNL307      0.1146
   1229 N           8.1134    5.0591   22.3591 N.3   308  UNL308     -0.3437
   1230 H           8.4890    4.4655   23.0973 H     308  UNL308      0.1146
   1231 H           8.4647    5.9970   22.5468 H     308  UNL308      0.1146
   1232 H           8.5663    4.7567   21.4978 H     308  UNL308      0.1146
   1233 N           5.2272    9.8343    0.3367 N.3   309  UNL309     -0.3437
   1234 H           4.7855    9.0886   -0.1992 H     309  UNL309      0.1146
   1235 H           5.9528    9.3870    0.8951 H     309  UNL309      0.1146
   1236 H           5.7147   10.4173   -0.3421 H     309  UNL309      0.1146
   1237 N           8.5457    9.1903    1.6073 N.3   310  UNL310     -0.3437
   1238 H           8.5772    8.6625    2.4784 H     310  UNL310      0.1146
   1239 H           7.5590    9.3589    1.4166 H     310  UNL310      0.1146
   1240 H           8.9510   10.1016    1.8162 H     310  UNL310      0.1146
   1241 N           8.1627    7.3309    4.0769 N.3   311  UNL311     -0.3437
   1242 H           7.7210    7.8549    3.3228 H     311  UNL311      0.1146
   1243 H           8.8883    6.7655    3.6386 H     311  UNL311      0.1146
   1244 H           8.6502    8.0190    4.6490 H     311  UNL311      0.1146
   1245 N           8.2057    9.2059    6.1961 N.3   312  UNL312     -0.3437
   1246 H           7.5842    9.7353    6.8060 H     312  UNL312      0.1146
   1247 H           9.1119    9.1922    6.6621 H     312  UNL312      0.1146
   1248 H           7.8660    8.2453    6.2145 H     312  UNL312      0.1146
   1249 N           7.6100    8.7821    8.5967 N.3   313  UNL313     -0.3437
   1250 H           6.9885    8.1916    8.0459 H     313  UNL313      0.1146
   1251 H           8.5162    8.7468    8.1319 H     313  UNL313      0.1146
   1252 H           7.2703    9.7354    8.4775 H     313  UNL313      0.1146
   1253 N           7.7144    9.2827   10.5025 N.3   314  UNL314     -0.3437
   1254 H           7.8422    8.6373   11.2806 H     314  UNL314      0.1146
   1255 H           7.6193   10.2083   10.9180 H     314  UNL314      0.1146
   1256 H           8.5990    9.2914    9.9967 H     314  UNL314      0.1146
   1257 N           8.0402    7.3263   12.8578 N.3   315  UNL315     -0.3437
   1258 H           7.5985    6.5806   12.3218 H     315  UNL315      0.1146
   1259 H           8.7658    6.8790   13.4162 H     315  UNL315      0.1146
   1260 H           8.5277    7.9093   12.1790 H     315  UNL315      0.1146
   1261 N           8.2702    8.8454   15.1777 N.3   316  UNL316     -0.3437
   1262 H           8.9105    9.4709   14.6908 H     316  UNL316      0.1146
   1263 H           7.7968    9.4164   15.8765 H     316  UNL316      0.1146
   1264 H           7.5576    8.5870   14.4966 H     316  UNL316      0.1146
   1265 N           8.0576    7.9081   16.9159 N.3   317  UNL317     -0.3437
   1266 H           7.6159    8.1987   17.7870 H     317  UNL317      0.1146
   1267 H           8.7832    8.5977   16.7252 H     317  UNL317      0.1146
   1268 H           8.5451    7.0380   17.1248 H     317  UNL317      0.1146
   1269 N           8.2462    9.5104   19.5807 N.3   318  UNL318     -0.3437
   1270 H           7.2804    9.8332   19.5435 H     318  UNL318      0.1146
   1271 H           8.4536    9.3580   20.5667 H     318  UNL318      0.1146
   1272 H           8.2510    8.5883   19.1470 H     318  UNL318      0.1146
   1273 N           6.3087    7.1403   21.3516 N.3   319  UNL319     -0.3437
   1274 H           5.8670    7.4309   22.2227 H     319  UNL319      0.1146
   1275 H           7.0343    7.8299   21.1609 H     319  UNL319      0.1146
   1276 H           6.7962    6.2702   21.5605 H     319  UNL319      0.1146
   1277 N           7.9582   11.4575   -0.4211 N.3   320  UNL320     -0.3437
   1278 H           7.5165   11.7481    0.4500 H     320  UNL320      0.1146
   1279 H           8.6838   12.1471   -0.6118 H     320  UNL320      0.1146
   1280 H           8.4457   10.5874   -0.2122 H     320  UNL320      0.1146
   1281 N           8.6093   11.6564    1.7414 N.3   321  UNL321     -0.3437
   1282 H           9.0563   11.3739    2.6125 H     321  UNL321      0.1146
   1283 H           7.8965   10.9536    1.5507 H     321  UNL321      0.1146
   1284 H           8.1060   12.5174    1.9503 H     321  UNL321      0.1146
   1285 N           7.8968   11.3025    4.0762 N.3   322  UNL322     -0.3437
   1286 H           7.4551   11.5931    4.9473 H     322  UNL322      0.1146
   1287 H           8.6224   11.9921    3.8855 H     322  UNL322      0.1146
   1288 H           8.3843   10.4324    4.2851 H     322  UNL322      0.1146
   1289 N           8.0342   11.5158    6.5045 N.3   323  UNL323     -0.3437
   1290 H           7.5925   11.8064    7.3756 H     323  UNL323      0.1146
   1291 H           8.7598   12.2054    6.3138 H     323  UNL323      0.1146
   1292 H           8.5217   10.6457    6.7134 H     323  UNL323      0.1146
   1293 N           7.7013   12.3784    8.7749 N.3   324  UNL324     -0.3437
   1294 H           7.2596   12.6690    9.6460 H     324  UNL324      0.1146
   1295 H           8.4269   13.0680    8.5842 H     324  UNL324      0.1146
   1296 H           8.1888   11.5083    8.9838 H     324  UNL324      0.1146
   1297 N           8.3376   13.0212   10.8833 N.3   325  UNL325     -0.3437
   1298 H           7.5316   12.9713   11.5047 H     325  UNL325      0.1146
   1299 H           9.1564   13.0660   11.4883 H     325  UNL325      0.1146
   1300 H           8.3855   12.1188   10.4124 H     325  UNL325      0.1146
   1301 N           8.0462   11.6385   12.8017 N.3   326  UNL326     -0.3437
   1302 H           7.6045   11.9291   13.6728 H     326  UNL326      0.1146
   1303 H           8.7718   12.3281   12.6110 H     326  UNL326      0.1146
   1304 H           8.5337   10.7684   13.0106 H     326  UNL326      0.1146
   1305 N           8.9890   11.5568   14.9914 N.3   327  UNL327     -0.3437
   1306 H           9.1677   11.8474   14.0311 H     327  UNL327      0.1146
   1307 H           8.3464   12.2464   15.3786 H     327  UNL327      0.1146
   1308 H           8.4624   10.6867   14.9281 H     327  UNL327      0.1146
   1309 N           8.2855   10.9049   16.8807 N.3   328  UNL328     -0.3437
   1310 H           7.8438   11.1955   17.7518 H     328  UNL328      0.1146
   1311 H           9.0111   11.5945   16.6900 H     328  UNL328      0.1146
   1312 H           8.7730   10.0348   17.0896 H     328  UNL328      0.1146
   1313 N           8.2335   11.7022   19.4539 N.3   329  UNL329     -0.3437
   1314 H           9.2018   11.9928   19.5818 H     329  UNL329      0.1146
   1315 H           7.8131   12.3918   18.8326 H     329  UNL329      0.1146
   1316 H           8.2690   10.8321   18.9247 H     329  UNL329      0.1146
   1317 N           8.0518   12.3785   21.3313 N.3   330  UNL330     -0.3437
   1318 H           7.6101   12.6691   22.2024 H     330  UNL330      0.1146
   1319 H           8.7774   13.0681   21.1406 H     330  UNL330      0.1146
   1320 H           8.5393   11.5084   21.5402 H     330  UNL330      0.1146
   1321 N           8.1383    0.5026    0.4732 N.3   331  UNL331     -0.3437
   1322 H           7.6966   -0.3692    0.1847 H     331  UNL331      0.1146
   1323 H           8.8639    0.2427    1.1398 H     331  UNL331      0.1146
   1324 H           8.6258    0.8560   -0.3489 H     331  UNL331      0.1146
   1325 N          10.3079   -0.0614    1.7588 N.3   332  UNL332     -0.3437
   1326 H           9.8662    0.2292    2.6299 H     332  UNL332      0.1146
   1327 H          11.0335    0.6282    1.5681 H     332  UNL332      0.1146
   1328 H          10.7954   -0.9315    1.9677 H     332  UNL332      0.1146
   1329 N           9.9426    0.4265    4.2487 N.3   333  UNL333     -0.3437
   1330 H           9.5009    0.7171    5.1198 H     333  UNL333      0.1146
   1331 H          10.6682    1.1161    4.0580 H     333  UNL333      0.1146
   1332 H          10.4301   -0.4436    4.4576 H     333  UNL333      0.1146
   1333 N           9.9923   -0.2749    6.1625 N.3   334  UNL334     -0.3437
   1334 H           9.5506    0.0157    7.0336 H     334  UNL334      0.1146
   1335 H          10.7179    0.4147    5.9718 H     334  UNL334      0.1146
   1336 H          10.4798   -1.1450    6.3714 H     334  UNL334      0.1146
   1337 N           9.9777    0.0175    8.4126 N.3   335  UNL335     -0.3437
   1338 H           9.5360    0.3081    9.2837 H     335  UNL335      0.1146
   1339 H          10.7033    0.7071    8.2219 H     335  UNL335      0.1146
   1340 H          10.4652   -0.8526    8.6215 H     335  UNL335      0.1146
   1341 N           9.9369    0.2457   10.8496 N.3   336  UNL336     -0.3437
   1342 H           9.4952    0.5363   11.7207 H     336  UNL336      0.1146
   1343 H          10.6625    0.9353   10.6589 H     336  UNL336      0.1146
   1344 H          10.4244   -0.6244   11.0585 H     336  UNL336      0.1146
   1345 N          10.3374   -0.3262   13.0298 N.3   337  UNL337     -0.3437
   1346 H          10.7536   -0.8051   13.8272 H     337  UNL337      0.1146
   1347 H          11.0614    0.2903   12.6633 H     337  UNL337      0.1146
   1348 H          10.1905   -1.0407   12.3183 H     337  UNL337      0.1146
   1349 N           9.4986   -0.1374   14.7623 N.3   338  UNL338     -0.3437
   1350 H           9.0569    0.1532   15.6334 H     338  UNL338      0.1146
   1351 H          10.2242    0.5522   14.5716 H     338  UNL338      0.1146
   1352 H           9.9861   -1.0075   14.9712 H     338  UNL338      0.1146
   1353 N           9.6944    0.8384   16.8399 N.3   339  UNL339     -0.3437
   1354 H           9.2527    1.1290   17.7110 H     339  UNL339      0.1146
   1355 H          10.4200    1.5280   16.6492 H     339  UNL339      0.1146
   1356 H          10.1819   -0.0317   17.0488 H     339  UNL339      0.1146
   1357 N           9.6887   -1.0984   18.7627 N.3   340  UNL340     -0.3437
   1358 H           9.2470   -0.8078   19.6338 H     340  UNL340      0.1146
   1359 H          10.4143   -0.4088   18.5720 H     340  UNL340      0.1146
   1360 H          10.1762   -1.9685   18.9716 H     340  UNL340      0.1146
   1361 N          10.2321   -1.0838   20.8431 N.3   341  UNL341     -0.3437
   1362 H           9.7904   -0.7932   21.7142 H     341  UNL341      0.1146
   1363 H          10.9577   -0.3942   20.6525 H     341  UNL341      0.1146
   1364 H          10.7196   -1.9539   21.0520 H     341  UNL341      0.1146
   1365 N           9.4257   -1.0984   -1.3590 N.3   342  UNL342     -0.3437
   1366 H           8.9840   -0.8078   -0.4879 H     342  UNL342      0.1146
   1367 H          10.1513   -0.4088   -1.5497 H     342  UNL342      0.1146
   1368 H           9.9132   -1.9685   -1.1501 H     342  UNL342      0.1146
   1369 N           9.7908    2.2924    1.2303 N.3   343  UNL343     -0.3437
   1370 H           9.3491    1.5468    0.6943 H     343  UNL343      0.1146
   1371 H          10.5164    1.8451    1.7887 H     343  UNL343      0.1146
   1372 H          10.2783    2.8754    0.5514 H     343  UNL343      0.1146
   1373 N          10.6108    2.6064    3.7590 N.3   344  UNL344     -0.3437
   1374 H          10.2755    1.8963    3.1096 H     344  UNL344      0.1146
   1375 H          11.1039    2.1033    4.4953 H     344  UNL344      0.1146
   1376 H          11.3218    3.1345    3.2551 H     344  UNL344      0.1146
   1377 N           7.9890    2.0338    6.5866 N.3   345  UNL345     -0.3437
   1378 H           7.4082    2.3244    5.8014 H     345  UNL345      0.1146
   1379 H           7.8344    2.7234    7.3208 H     345  UNL345      0.1146
   1380 H           7.5838    1.1637    6.9289 H     345  UNL345      0.1146
   1381 N           9.9291    2.4917    8.2827 N.3   346  UNL346     -0.3437
   1382 H          10.8706    2.4111    7.9015 H     346  UNL346      0.1146
   1383 H           9.3219    2.6968    7.4905 H     346  UNL346      0.1146
   1384 H           9.6729    1.5573    8.5983 H     346  UNL346      0.1146
   1385 N           9.9186    2.3467   10.4842 N.3   347  UNL347     -0.3437
   1386 H           9.2971    2.4335   11.2871 H     347  UNL347      0.1146
   1387 H          10.8247    2.0696   10.8591 H     347  UNL347      0.1146
   1388 H           9.5789    1.5474    9.9512 H     347  UNL347      0.1146
   1389 N          10.1194    2.8006   12.5835 N.3   348  UNL348     -0.3437
   1390 H           9.7087    3.3300   13.3512 H     348  UNL348      0.1146
   1391 H          11.1234    2.7870   12.7572 H     348  UNL348      0.1146
   1392 H           9.8007    1.8401   12.7026 H     348  UNL348      0.1146
   1393 N           9.9736    2.1836   14.5465 N.3   349  UNL349     -0.3437
   1394 H           9.1982    2.8211   14.3711 H     349  UNL349      0.1146
   1395 H          10.6990    2.7406   14.9960 H     349  UNL349      0.1146
   1396 H           9.6440    1.5284   15.2539 H     349  UNL349      0.1146
   1397 N           9.4097    2.9414   17.2029 N.3   350  UNL350     -0.3437
   1398 H           9.5375    2.2960   17.9810 H     350  UNL350      0.1146
   1399 H           9.3146    3.8670   17.6183 H     350  UNL350      0.1146
   1400 H          10.2943    2.9502   16.6971 H     350  UNL350      0.1146
   1401 N           9.7470    1.2143   20.0547 N.3   351  UNL351     -0.3437
   1402 H           9.3053    1.4889   19.1784 H     351  UNL351      0.1146
   1403 H          10.4726    0.5437   19.8055 H     351  UNL351      0.1146
   1404 H          10.2345    2.0420   20.3949 H     351  UNL351      0.1146
   1405 N           9.8853    1.1305   22.5202 N.3   352  UNL352     -0.3437
   1406 H          10.0770    0.3127   23.0973 H     352  UNL352      0.1146
   1407 H          10.7281    1.7022   22.5544 H     352  UNL352      0.1146
   1408 H           9.8165    0.7887   21.5627 H     352  UNL352      0.1146
   1409 N          10.2571    1.3867   -1.3584 N.3   353  UNL353     -0.3437
   1410 H          10.1294    0.8736   -0.4873 H     353  UNL353      0.1146
   1411 H           9.3660    1.8426   -1.5491 H     353  UNL353      0.1146
   1412 H          10.9164    2.1351   -1.1495 H     353  UNL353      0.1146
   1413 N          10.3474    4.8091    2.3568 N.3   354  UNL354     -0.3437
   1414 H           9.5418    5.3975    2.1492 H     354  UNL354      0.1146
   1415 H          10.8342    5.2616    3.1292 H     354  UNL354      0.1146
   1416 H           9.9709    3.9400    2.7329 H     354  UNL354      0.1146
   1417 N          10.1318    4.2274    4.2793 N.3   355  UNL355     -0.3437
   1418 H          10.0211    3.5820    5.0600 H     355  UNL355      0.1146
   1419 H           9.9169    5.1530    4.6473 H     355  UNL355      0.1146
   1420 H          11.1272    4.2362    4.0611 H     355  UNL355      0.1146
   1421 N          10.1581    1.9811    5.9582 N.3   356  UNL356     -0.3437
   1422 H          10.0304    1.4681    6.8293 H     356  UNL356      0.1146
   1423 H           9.2669    2.4371    5.7675 H     356  UNL356      0.1146
   1424 H          10.8174    2.7296    6.1671 H     356  UNL356      0.1146
   1425 N          10.1259    4.2611    8.4042 N.3   357  UNL357     -0.3437
   1426 H           9.9681    3.8779    9.3351 H     357  UNL357      0.1146
   1427 H           9.9994    5.2685    8.4900 H     357  UNL357      0.1146
   1428 H          11.1151    4.1182    8.2056 H     357  UNL357      0.1146
   1429 N           9.5119    4.8055   10.7605 N.3   358  UNL358     -0.3437
   1430 H           9.8665    3.9791   11.2397 H     358  UNL358      0.1146
   1431 H           9.5454    5.5618   11.4427 H     358  UNL358      0.1146
   1432 H          10.2048    5.0373   10.0502 H     358  UNL358      0.1146
   1433 N          10.4345    5.2666   12.8977 N.3   359  UNL359     -0.3437
   1434 H           9.5761    5.7960   13.0438 H     359  UNL359      0.1146
   1435 H          10.9127    5.2530   13.7974 H     359  UNL359      0.1146
   1436 H          10.1450    4.3061   12.7189 H     359  UNL359      0.1146
   1437 N          10.0182    4.6184   15.6334 N.3   360  UNL360     -0.3437
   1438 H           9.2038    4.4050   16.2076 H     360  UNL360      0.1146
   1439 H          10.7512    3.9788   15.9369 H     360  UNL360      0.1146
   1440 H           9.7747    4.3367   14.6849 H     360  UNL360      0.1146
   1441 N          10.4365    4.8449   17.5908 N.3   361  UNL361     -0.3437
   1442 H           9.9948    5.1355   18.4619 H     361  UNL361      0.1146
   1443 H          11.1621    5.5345   17.4001 H     361  UNL361      0.1146
   1444 H          10.9240    3.9748   17.7997 H     361  UNL361      0.1146
   1445 N           8.5064    4.7961   19.1393 N.3   362  UNL362     -0.3437
   1446 H           8.9225    5.7023   18.9297 H     362  UNL362      0.1146
   1447 H           9.2304    4.1042   18.9507 H     362  UNL362      0.1146
   1448 H           8.3595    4.7810   20.1476 H     362  UNL362      0.1146
   1449 N          10.2850    4.5438   22.9696 N.3   363  UNL363     -0.3437
   1450 H          11.2533    4.8344   23.0975 H     363  UNL363      0.1146
   1451 H           9.8645    5.2334   22.3483 H     363  UNL363      0.1146
   1452 H          10.3204    3.6737   22.4404 H     363  UNL363      0.1146
   1453 N           9.6086    4.1946   -0.2471 N.3   364  UNL364     -0.3437
   1454 H           9.6671    4.8529    0.5285 H     364  UNL364      0.1146
   1455 H           9.4838    4.7593   -1.0861 H     364  UNL364      0.1146
   1456 H          10.5327    3.7726   -0.3276 H     364  UNL364      0.1146
   1457 N           8.1724    7.2758    1.8862 N.3   365  UNL365     -0.3437
   1458 H           8.6300    7.5664    1.0233 H     365  UNL365      0.1146
   1459 H           7.4434    7.9654    2.0635 H     365  UNL365      0.1146
   1460 H           7.6888    6.4057    1.6684 H     365  UNL365      0.1146
   1461 N           9.9448    6.7480    4.9259 N.3   366  UNL366     -0.3437
   1462 H          10.5835    6.3648    5.6213 H     366  UNL366      0.1146
   1463 H           9.9350    7.7555    5.0785 H     366  UNL366      0.1146
   1464 H          10.3943    6.6051    4.0227 H     366  UNL366      0.1146
   1465 N          10.5362    5.1149    6.5429 N.3   367  UNL367     -0.3437
   1466 H          10.9518    5.5907    7.3425 H     367  UNL367      0.1146
   1467 H          11.3159    4.7975    5.9687 H     367  UNL367      0.1146
   1468 H          10.0992    4.2723    6.9136 H     367  UNL367      0.1146
   1469 N           9.7789    7.1367    8.3741 N.3   368  UNL368     -0.3437
   1470 H          10.2020    6.5394    9.0830 H     368  UNL368      0.1146
   1471 H           9.6323    8.0412    8.8199 H     368  UNL368      0.1146
   1472 H          10.4974    7.2854    7.6669 H     368  UNL368      0.1146
   1473 N          10.7564    6.6601   10.7165 N.3   369  UNL369     -0.3437
   1474 H          11.3404    6.2769    9.9746 H     369  UNL369      0.1146
   1475 H          10.9086    7.6676   10.7017 H     369  UNL369      0.1146
   1476 H           9.7928    6.5173   10.4176 H     369  UNL369      0.1146
   1477 N          10.5368    7.5350   12.7073 N.3   370  UNL370     -0.3437
   1478 H           9.6040    7.8579   12.9606 H     370  UNL370      0.1146
   1479 H          11.0295    7.3827   13.5862 H     370  UNL370      0.1146
   1480 H          10.4117    6.6129   12.2921 H     370  UNL370      0.1146
   1481 N          10.4570    6.8935   15.2060 N.3   371  UNL371     -0.3437
   1482 H           9.6239    6.9803   15.7863 H     371  UNL371      0.1146
   1483 H          11.2096    6.6164   15.8346 H     371  UNL371      0.1146
   1484 H          10.2922    6.0942   14.5957 H     371  UNL371      0.1146
   1485 N          10.3196    7.0249   17.4676 N.3   372  UNL372     -0.3437
   1486 H           9.4865    7.1116   18.0480 H     372  UNL372      0.1146
   1487 H          11.0722    6.7478   18.0962 H     372  UNL372      0.1146
   1488 H          10.1548    6.2256   16.8574 H     372  UNL372      0.1146
   1489 N           9.7208    7.3317   20.2000 N.3   373  UNL373     -0.3437
   1490 H           9.2791    7.6223   21.0711 H     373  UNL373      0.1146
   1491 H          10.4464    8.0213   20.0093 H     373  UNL373      0.1146
   1492 H          10.2083    6.4616   20.4089 H     373  UNL373      0.1146
   1493 N          10.0596    7.1304   22.4630 N.3   374  UNL374     -0.3437
   1494 H           9.2683    7.0244   23.0962 H     374  UNL374      0.1146
   1495 H          10.4319    8.0637   22.6325 H     374  UNL374      0.1146
   1496 H          10.7717    6.4800   22.7920 H     374  UNL374      0.1146
   1497 N           8.7966    8.4835   -1.0632 N.3   375  UNL375     -0.3437
   1498 H           8.9243    8.1003   -0.1277 H     375  UNL375      0.1146
   1499 H           8.7015    9.4910   -0.9435 H     375  UNL375      0.1146
   1500 H           9.6812    8.3406   -1.5484 H     375  UNL375      0.1146
   1501 N          10.8647    6.8013   -0.4367 N.3   376  UNL376     -0.3437
   1502 H          10.4311    7.0919   -1.3118 H     376  UNL376      0.1146
   1503 H          10.5832    7.4909    0.2588 H     376  UNL376      0.1146
   1504 H          10.4056    5.9312   -0.1711 H     376  UNL376      0.1146
   1505 N          10.2409    9.8821    2.6370 N.3   377  UNL377     -0.3437
   1506 H           9.7992   10.1727    3.5081 H     377  UNL377      0.1146
   1507 H          10.9665   10.5717    2.4463 H     377  UNL377      0.1146
   1508 H          10.7284    9.0120    2.8459 H     377  UNL377      0.1146
   1509 N          10.1505    9.4329    4.9137 N.3   378  UNL378     -0.3437
   1510 H          10.6908    9.1003    5.7111 H     378  UNL378      0.1146
   1511 H          10.6571   10.2376    4.5472 H     378  UNL378      0.1146
   1512 H          10.2240    8.7071    4.2022 H     378  UNL378      0.1146
   1513 N          10.1074    9.9026    8.3579 N.3   379  UNL379     -0.3437
   1514 H          10.3127    9.5167    9.2784 H     379  UNL379      0.1146
   1515 H          10.1673    9.1215    7.7061 H     379  UNL379      0.1146
   1516 H           9.1258   10.1751    8.3802 H     379  UNL379      0.1146
   1517 N           9.8729    9.4732   11.1408 N.3   380  UNL380     -0.3437
   1518 H          10.8412    9.7638   11.2687 H     380  UNL380      0.1146
   1519 H           9.4524   10.1628   10.5195 H     380  UNL380      0.1146
   1520 H           9.9084    8.6031   10.6116 H     380  UNL380      0.1146
   1521 N           8.9143    9.2726   12.7519 N.3   381  UNL381     -0.3437
   1522 H           8.7866    8.7595   13.6230 H     381  UNL381      0.1146
   1523 H           8.0232    9.7285   12.5612 H     381  UNL381      0.1146
   1524 H           9.5736   10.0210   12.9608 H     381  UNL381      0.1146
   1525 N          10.6044    9.8450   14.8156 N.3   382  UNL382     -0.3437
   1526 H          10.1084    8.9569   14.8753 H     382  UNL382      0.1146
   1527 H          10.3725   10.3541   15.6673 H     382  UNL382      0.1146
   1528 H          11.5955    9.6185   14.8848 H     382  UNL382      0.1146
   1529 N          10.3686    9.2563   16.8909 N.3   383  UNL383     -0.3437
   1530 H          10.2579    8.6110   17.6717 H     383  UNL383      0.1146
   1531 H          10.1537   10.1819   17.2590 H     383  UNL383      0.1146
   1532 H          11.3640    9.2651   16.6728 H     383  UNL383      0.1146
   1533 N          10.1356    9.6471   19.1393 N.3   384  UNL384     -0.3437
   1534 H           9.6939   10.5641   19.0910 H     384  UNL384      0.1146
   1535 H          10.8612    9.6468   18.4238 H     384  UNL384      0.1146
   1536 H          10.6231    9.6170   20.0336 H     384  UNL384      0.1146
   1537 N           6.4247    8.9944   22.6789 N.3   385  UNL385     -0.3437
   1538 H           7.2171    8.4554   23.0252 H     385  UNL385      0.1146
   1539 H           5.5955    8.5754   23.0976 H     385  UNL385      0.1146
   1540 H           6.5118    9.9206   23.0946 H     385  UNL385      0.1146
   1541 N          10.3900   12.3784    0.0310 N.3   386  UNL386     -0.3437
   1542 H          11.3583   12.6690    0.1589 H     386  UNL386      0.1146
   1543 H           9.9695   13.0680   -0.5903 H     386  UNL386      0.1146
   1544 H          10.4255   11.5083   -0.4982 H     386  UNL386      0.1146
   1545 N          10.3103   13.0212    2.1403 N.3   387  UNL387     -0.3437
   1546 H           9.5043   12.9713    2.7617 H     387  UNL387      0.1146
   1547 H          11.1291   13.0660    2.7453 H     387  UNL387      0.1146
   1548 H          10.3582   12.1188    1.6694 H     387  UNL387      0.1146
   1549 N          10.3659   13.0238    4.5044 N.3   388  UNL388     -0.3437
   1550 H           9.5599   12.9740    5.1259 H     388  UNL388      0.1146
   1551 H          11.1847   13.0687    5.1094 H     388  UNL388      0.1146
   1552 H          10.4138   12.1214    4.0335 H     388  UNL388      0.1146
   1553 N          10.0508   11.1915    6.3876 N.3   389  UNL389     -0.3437
   1554 H           9.6091   11.4821    7.2587 H     389  UNL389      0.1146
   1555 H          10.7764   11.8811    6.1969 H     389  UNL389      0.1146
   1556 H          10.5383   10.3214    6.5965 H     389  UNL389      0.1146
   1557 N          10.4535   12.3784    8.0656 N.3   390  UNL390     -0.3437
   1558 H           9.5040   12.6690    7.8367 H     390  UNL390      0.1146
   1559 H          10.8064   13.0680    8.7277 H     390  UNL390      0.1146
   1560 H          10.3626   11.5083    8.5881 H     390  UNL390      0.1146
   1561 N          10.1793   11.6735   10.3004 N.3   391  UNL391     -0.3437
   1562 H           9.7376   11.9641   11.1715 H     391  UNL391      0.1146
   1563 H          10.9049   12.3631   10.1097 H     391  UNL391      0.1146
   1564 H          10.6668   10.8034   10.5093 H     391  UNL391      0.1146
   1565 N          10.4240   12.3784   12.8558 N.3   392  UNL392     -0.3437
   1566 H          10.6027   12.6690   11.8956 H     392  UNL392      0.1146
   1567 H           9.7814   13.0680   13.2430 H     392  UNL392      0.1146
   1568 H           9.8974   11.5083   12.7925 H     392  UNL392      0.1146
   1569 N          10.6404   13.0212   14.9215 N.3   393  UNL393     -0.3437
   1570 H           9.8344   12.9713   15.5429 H     393  UNL393      0.1146
   1571 H          11.4592   13.0660   15.5264 H     393  UNL393      0.1146
   1572 H          10.6883   12.1188   14.4506 H     393  UNL393      0.1146
   1573 N          10.5121   13.0238   17.1072 N.3   394  UNL394     -0.3437
   1574 H           9.7061   12.9740   17.7287 H     394  UNL394      0.1146
   1575 H          11.3309   13.0687   17.7122 H     394  UNL394      0.1146
   1576 H          10.5600   12.1214   16.6364 H     394  UNL394      0.1146
   1577 N          10.5382   13.0238   19.3381 N.3   395  UNL395     -0.3437
   1578 H           9.9548   12.9740   20.1721 H     395  UNL395      0.1146
   1579 H          11.5004   13.0687   19.6706 H     395  UNL395      0.1146
   1580 H          10.4431   12.1214   18.8744 H     395  UNL395      0.1146
   1581 N           9.7730   12.3785   22.2260 N.3   396  UNL396     -0.3437
   1582 H           9.3313   12.6691   23.0971 H     396  UNL396      0.1146
   1583 H          10.4986   13.0681   22.0353 H     396  UNL396      0.1146
   1584 H          10.2605   11.5084   22.4349 H     396  UNL396      0.1146
   1585 N          11.7373   -1.0993   -1.3590 N.3   397  UNL397     -0.3437
   1586 H          11.2956   -0.8087   -0.4879 H     397  UNL397      0.1146
   1587 H          12.4629   -0.4097   -1.5497 H     397  UNL397      0.1146
   1588 H          12.2248   -1.9694   -1.1501 H     397  UNL397      0.1146
   1589 N          12.0230   -1.1816    1.2849 N.3   398  UNL398     -0.3437
   1590 H          12.7833   -0.6431    0.8721 H     398  UNL398      0.1146
   1591 H          11.8627   -1.9681    0.6571 H     398  UNL398      0.1146
   1592 H          12.3961   -1.5805    2.1451 H     398  UNL398      0.1146
   1593 N          11.9738   -1.0337    4.6519 N.3   399  UNL399     -0.3437
   1594 H          12.3513   -1.9693    4.5087 H     399  UNL399      0.1146
   1595 H          12.7258   -0.4885    5.0711 H     399  UNL399      0.1146
   1596 H          11.8291   -0.6437    3.7216 H     399  UNL399      0.1146
   1597 N          11.8129   -1.0740    6.8488 N.3   400  UNL400     -0.3437
   1598 H          11.5891   -1.9700    6.4180 H     400  UNL400      0.1146
   1599 H          12.7416   -1.1816    7.2543 H     400  UNL400      0.1146
   1600 H          11.9166   -0.4115    6.0815 H     400  UNL400      0.1146
   1601 N          11.9648   -1.4825    9.0202 N.3   401  UNL401     -0.3437
   1602 H          11.7410   -0.9136    8.2050 H     401  UNL401      0.1146
   1603 H          12.8935   -1.8655    8.8490 H     401  UNL401      0.1146
   1604 H          12.0686   -0.8313    9.7971 H     401  UNL401      0.1146
   1605 N          11.6151   -1.7276   10.8836 N.3   402  UNL402     -0.3437
   1606 H          10.9997   -1.2408   10.2334 H     402  UNL402      0.1146
   1607 H          12.4508   -1.9682   10.3525 H     402  UNL402      0.1146
   1608 H          11.9079   -1.0316   11.5678 H     402  UNL402      0.1146
   1609 N          12.2251   -1.8765   13.0575 N.3   403  UNL403     -0.3437
   1610 H          11.7834   -0.9730   12.8937 H     403  UNL403      0.1146
   1611 H          12.9507   -1.9673   12.3478 H     403  UNL403      0.1146
   1612 H          12.7126   -1.7935   13.9485 H     403  UNL403      0.1146
   1613 N          12.0480   -1.0960   15.5626 N.3   404  UNL404     -0.3437
   1614 H          11.5402   -1.9678   15.4194 H     404  UNL404      0.1146
   1615 H          12.9397   -1.3560   15.9818 H     404  UNL404      0.1146
   1616 H          12.2674   -0.7427   14.6324 H     404  UNL404      0.1146
   1617 N          11.8990   -1.1802   17.8054 N.3   405  UNL405     -0.3437
   1618 H          11.3912   -1.9692   17.4081 H     405  UNL405      0.1146
   1619 H          12.7907   -1.5535   18.1277 H     405  UNL405      0.1146
   1620 H          12.1184   -0.5648   17.0234 H     405  UNL405      0.1146
   1621 N          12.3197   -1.0960   20.1476 N.3   406  UNL406     -0.3437
   1622 H          11.8119   -1.9678   20.0043 H     406  UNL406      0.1146
   1623 H          13.2114   -1.3560   20.5667 H     406  UNL406      0.1146
   1624 H          12.5391   -0.7427   19.2173 H     406  UNL406      0.1146
   1625 N          11.7373   -1.9685   22.2993 N.3   407  UNL407     -0.3437
   1626 H          12.3615   -1.8431   23.0950 H     407  UNL407      0.1146
   1627 H          10.8331   -1.6000   22.5909 H     407  UNL407      0.1146
   1628 H          12.0767   -1.3383   21.5741 H     407  UNL407      0.1146
   1629 N          12.1111    0.7479   -0.1431 N.3   408  UNL408     -0.3437
   1630 H          12.1346    1.6338    0.3600 H     408  UNL408      0.1146
   1631 H          12.0109    0.9872   -1.1286 H     408  UNL408      0.1146
   1632 H          13.0417    0.3446   -0.0453 H     408  UNL408      0.1146
   1633 N          12.0834    2.5263    1.7216 N.3   409  UNL409     -0.3437
   1634 H          11.3080    3.1871    1.7448 H     409  UNL409      0.1146
   1635 H          12.8087    2.9234    2.3170 H     409  UNL409      0.1146
   1636 H          11.7537    1.6895    2.2007 H     409  UNL409      0.1146
   1637 N          12.5581    0.9164    3.1434 N.3   410  UNL410     -0.3437
   1638 H          12.1164    0.9333    4.0615 H     410  UNL410      0.1146
   1639 H          13.2837    1.6315    3.1676 H     410  UNL410      0.1146
   1640 H          13.0456    0.0236    3.0826 H     410  UNL410      0.1146
   1641 N          12.1110    1.5013    6.0485 N.3   411  UNL411     -0.3437
   1642 H          11.6693    1.7919    6.9196 H     411  UNL411      0.1146
   1643 H          12.8366    2.1909    5.8578 H     411  UNL411      0.1146
   1644 H          12.5985    0.6312    6.2574 H     411  UNL411      0.1146
   1645 N          12.2835    0.8751    8.0261 N.3   412  UNL412     -0.3437
   1646 H          11.8418    0.8920    8.9442 H     412  UNL412      0.1146
   1647 H          13.0091    1.5902    8.0503 H     412  UNL412      0.1146
   1648 H          12.7710   -0.0177    7.9653 H     412  UNL412      0.1146
   1649 N          12.1312    0.4067   10.5984 N.3   413  UNL413     -0.3437
   1650 H          11.6228    0.5520   11.4695 H     413  UNL413      0.1146
   1651 H          12.6174    1.2817   10.4077 H     413  UNL413      0.1146
   1652 H          12.8565   -0.2778   10.8073 H     413  UNL413      0.1146
   1653 N          11.9892    1.4470   12.8348 N.3   414  UNL414     -0.3437
   1654 H          11.5049    1.8967   13.6104 H     414  UNL414      0.1146
   1655 H          11.4665    1.6945   11.9959 H     414  UNL414      0.1146
   1656 H          12.8890    1.9184   12.7543 H     414  UNL414      0.1146
   1657 N          11.7519    0.8519   15.0986 N.3   415  UNL415     -0.3437
   1658 H          11.3102   -0.0199   14.8101 H     415  UNL415      0.1146
   1659 H          12.4775    0.5919   15.7652 H     415  UNL415      0.1146
   1660 H          12.2394    1.2052   14.2765 H     415  UNL415      0.1146
   1661 N          11.7054    1.1279   17.0482 N.3   416  UNL416     -0.3437
   1662 H          11.2637    0.3823   16.5122 H     416  UNL416      0.1146
   1663 H          12.4310    0.6806   17.6066 H     416  UNL416      0.1146
   1664 H          12.1929    1.7109   16.3693 H     416  UNL416      0.1146
   1665 N          11.9976    0.9102   19.5080 N.3   417  UNL417     -0.3437
   1666 H          11.5559    0.0384   19.2194 H     417  UNL417      0.1146
   1667 H          12.7232    0.6503   20.1746 H     417  UNL417      0.1146
   1668 H          12.4851    1.2636   18.6859 H     417  UNL417      0.1146
   1669 N          11.8363    1.1293   22.4298 N.3   418  UNL418     -0.3437
   1670 H          11.3946    0.2575   22.1413 H     418  UNL418      0.1146
   1671 H          12.5619    0.8694   23.0964 H     418  UNL418      0.1146
   1672 H          12.3238    1.4827   21.6077 H     418  UNL418      0.1146
   1673 N          11.6041    4.2273   -1.3948 N.3   419  UNL419     -0.3437
   1674 H          11.1503    4.9330   -0.8166 H     419  UNL419      0.1146
   1675 H          12.5553    4.5592   -1.5483 H     419  UNL419      0.1146
   1676 H          11.6873    3.3966   -0.8106 H     419  UNL419      0.1146
   1677 N          12.2048    4.6132    2.5486 N.3   420  UNL420     -0.3437
   1678 H          11.7631    5.3387    1.9856 H     420  UNL420      0.1146
   1679 H          12.9304    4.2047    1.9612 H     420  UNL420      0.1146
   1680 H          12.6923    5.0988    3.3002 H     420  UNL420      0.1146
   1681 N          12.4419    3.1426    4.5237 N.3   421  UNL421     -0.3437
   1682 H          11.4975    3.2588    4.8881 H     421  UNL421      0.1146
   1683 H          12.5816    3.9014    3.8581 H     421  UNL421      0.1146
   1684 H          13.0694    3.3340    5.3035 H     421  UNL421      0.1146
   1685 N          12.2048    4.0274    6.9926 N.3   422  UNL422     -0.3437
   1686 H          11.7631    3.7209    6.1270 H     422  UNL422      0.1146
   1687 H          12.9304    3.3414    7.1959 H     422  UNL422      0.1146
   1688 H          12.6923    4.8935    6.7678 H     422  UNL422      0.1146
   1689 N          12.0369    2.9442    8.9219 N.3   423  UNL423     -0.3437
   1690 H          12.1647    2.5377    7.9963 H     423  UNL423      0.1146
   1691 H          11.9419    2.1581    9.5632 H     423  UNL423      0.1146
   1692 H          12.9215    3.3924    9.1564 H     423  UNL423      0.1146
   1693 N          12.2937    3.3971   10.7923 N.3   424  UNL424     -0.3437
   1694 H          12.9136    2.7033   10.3767 H     424  UNL424      0.1146
   1695 H          11.3627    3.1943   10.4309 H     424  UNL424      0.1146
   1696 H          12.2608    3.1837   11.7882 H     424  UNL424      0.1146
   1697 N          11.8367    4.2000   13.0653 N.3   425  UNL425     -0.3437
   1698 H          11.3950    4.2000   12.1471 H     425  UNL425      0.1146
   1699 H          12.5623    3.4855   13.0280 H     425  UNL425      0.1146
   1700 H          12.3242    5.0915   13.1425 H     425  UNL425      0.1146
   1701 N          12.2895    3.2657   15.1336 N.3   426  UNL426     -0.3437
   1702 H          11.8478    2.3939   14.8451 H     426  UNL426      0.1146
   1703 H          13.0151    3.0057   15.8002 H     426  UNL426      0.1146
   1704 H          12.7770    3.6190   14.3115 H     426  UNL426      0.1146
   1705 N          12.3480    3.5137   17.6235 N.3   427  UNL427     -0.3437
   1706 H          11.9063    2.6419   17.3350 H     427  UNL427      0.1146
   1707 H          13.0736    3.2538   18.2901 H     427  UNL427      0.1146
   1708 H          12.8355    3.8670   16.8014 H     427  UNL427      0.1146
   1709 N          10.4083    4.2310   20.2509 N.3   428  UNL428     -0.3437
   1710 H          10.8658    4.5216   19.3880 H     428  UNL428      0.1146
   1711 H           9.6793    4.9206   20.4282 H     428  UNL428      0.1146
   1712 H           9.9247    3.3609   20.0331 H     428  UNL428      0.1146
   1713 N          11.6234    3.6143   21.5777 N.3   429  UNL429     -0.3437
   1714 H          11.1817    2.6962   21.5631 H     429  UNL429      0.1146
   1715 H          12.3490    3.5656   22.2915 H     429  UNL429      0.1146
   1716 H          12.1109    3.7057   20.6876 H     429  UNL429      0.1146
   1717 N          12.1609    4.2301    0.2571 N.3   430  UNL430     -0.3437
   1718 H          11.7192    4.5207    1.1282 H     430  UNL430      0.1146
   1719 H          12.8865    4.9197    0.0664 H     430  UNL430      0.1146
   1720 H          12.6484    3.3600    0.4660 H     430  UNL430      0.1146
   1721 N          10.1988    7.3020    1.9694 N.3   431  UNL431     -0.3437
   1722 H           9.7571    7.5926    2.8405 H     431  UNL431      0.1146
   1723 H          10.9244    7.9916    1.7787 H     431  UNL431      0.1146
   1724 H          10.6863    6.4319    2.1783 H     431  UNL431      0.1146
   1725 N          11.9951    5.7396    4.9547 N.3   432  UNL432     -0.3437
   1726 H          12.8808    6.0302    5.3663 H     432  UNL432      0.1146
   1727 H          11.7796    6.4292    4.2361 H     432  UNL432      0.1146
   1728 H          12.1872    4.8695    4.4604 H     432  UNL432      0.1146
   1729 N          12.2046    7.1450    6.8493 N.3   433  UNL433     -0.3437
   1730 H          11.7629    6.8385    5.9837 H     433  UNL433      0.1146
   1731 H          12.9302    6.4590    7.0526 H     433  UNL433      0.1146
   1732 H          12.6921    8.0111    6.6245 H     433  UNL433      0.1146
   1733 N          12.0653    5.1764    8.6911 N.3   434  UNL434     -0.3437
   1734 H          12.5578    5.4670    9.5345 H     434  UNL434      0.1146
   1735 H          12.2984    5.8660    7.9780 H     434  UNL434      0.1146
   1736 H          12.5051    4.3063    8.3947 H     434  UNL434      0.1146
   1737 N          11.9010    5.2999   11.2390 N.3   435  UNL435     -0.3437
   1738 H          11.4593    4.7486   10.5046 H     435  UNL435      0.1146
   1739 H          12.6266    4.7061   11.6381 H     435  UNL435      0.1146
   1740 H          12.3885    6.0592   10.7655 H     435  UNL435      0.1146
   1741 N          12.2544    6.7640   12.4692 N.3   436  UNL436     -0.3437
   1742 H          11.8127    7.4894   11.9063 H     436  UNL436      0.1146
   1743 H          12.9800    6.3554   11.8819 H     436  UNL436      0.1146
   1744 H          12.7419    7.2495   13.2209 H     436  UNL436      0.1146
   1745 N          11.8307    5.2966   15.0665 N.3   437  UNL437     -0.3437
   1746 H          11.3890    4.4248   14.7780 H     437  UNL437      0.1146
   1747 H          12.5563    5.0367   15.7331 H     437  UNL437      0.1146
   1748 H          12.3182    5.6500   14.2444 H     437  UNL437      0.1146
   1749 N          12.6965    5.6796   17.4434 N.3   438  UNL438     -0.3437
   1750 H          12.1887    4.8905   17.0461 H     438  UNL438      0.1146
   1751 H          13.5882    5.3062   17.7657 H     438  UNL438      0.1146
   1752 H          12.9159    6.2949   16.6614 H     438  UNL438      0.1146
   1753 N          11.8075    7.3292   20.1482 N.3   439  UNL439     -0.3437
   1754 H          11.3658    7.3291   19.2299 H     439  UNL439      0.1146
   1755 H          12.5331    6.6147   20.1109 H     439  UNL439      0.1146
   1756 H          12.2950    8.2207   20.2254 H     439  UNL439      0.1146
   1757 N          12.2959    7.1922   22.5942 N.3   440  UNL440     -0.3437
   1758 H          12.7325    7.9633   23.0974 H     440  UNL440      0.1146
   1759 H          12.6049    7.2773   21.6269 H     440  UNL440      0.1146
   1760 H          12.7280    6.3421   22.9532 H     440  UNL440      0.1146
   1761 N          10.3502    9.9616   -0.1713 N.3   441  UNL441     -0.3437
   1762 H           9.5960    9.6730    0.4502 H     441  UNL441      0.1146
   1763 H          11.1181   10.2491    0.4337 H     441  UNL441      0.1146
   1764 H          10.6657    9.1148   -0.6421 H     441  UNL441      0.1146
   1765 N          12.2716    9.0473    1.6991 N.3   442  UNL442     -0.3437
   1766 H          12.6947    9.2413    2.6056 H     442  UNL442      0.1146
   1767 H          12.1249    9.9541    1.2578 H     442  UNL442      0.1146
   1768 H          12.9901    8.5798    1.1481 H     442  UNL442      0.1146
   1769 N          12.0153    8.2656    4.1527 N.3   443  UNL443     -0.3437
   1770 H          12.2322    7.8486    5.0568 H     443  UNL443      0.1146
   1771 H          12.8829    8.2456    3.6187 H     443  UNL443      0.1146
   1772 H          11.3841    7.6148    3.6875 H     443  UNL443      0.1146
   1773 N          11.8133    9.4200    6.8326 N.3   444  UNL444     -0.3437
   1774 H          11.3716    8.5394    7.0931 H     444  UNL444      0.1146
   1775 H          12.5389    9.5869    7.5283 H     444  UNL444      0.1146
   1776 H          12.3008    9.2411    5.9558 H     444  UNL444      0.1146
   1777 N          11.8630    7.5552    8.9388 N.3   445  UNL445     -0.3437
   1778 H          11.4213    6.6834    8.6503 H     445  UNL445      0.1146
   1779 H          12.5886    7.2952    9.6054 H     445  UNL445      0.1146
   1780 H          12.3505    7.9085    8.1167 H     445  UNL445      0.1146
   1781 N          12.1638    8.7858   11.1961 N.3   446  UNL446     -0.3437
   1782 H          11.7221    9.0281   10.3104 H     446  UNL446      0.1146
   1783 H          12.8894    8.1065   10.9716 H     446  UNL446      0.1146
   1784 H          12.6513    9.6254   11.5057 H     446  UNL446      0.1146
   1785 N          11.8684    9.7295   12.9098 N.3   447  UNL447     -0.3437
   1786 H          11.1617   10.3179   12.4709 H     447  UNL447      0.1146
   1787 H          12.1020   10.1820   13.7925 H     447  UNL447      0.1146
   1788 H          11.3968    8.8604   13.1561 H     447  UNL447      0.1146
   1789 N          11.9272    7.9138   14.7243 N.3   448  UNL448     -0.3437
   1790 H          11.4855    8.2043   15.5954 H     448  UNL448      0.1146
   1791 H          12.6528    8.6033   14.5336 H     448  UNL448      0.1146
   1792 H          12.4147    7.0437   14.9332 H     448  UNL448      0.1146
   1793 N          12.6535    7.7284   17.0300 N.3   449  UNL449     -0.3437
   1794 H          12.9806    7.3130   17.9011 H     449  UNL449      0.1146
   1795 H          11.7470    7.3038   16.8393 H     449  UNL449      0.1146
   1796 H          12.4664    8.7080   17.2389 H     449  UNL449      0.1146
   1797 N          12.8571    9.1825   19.0226 N.3   450  UNL450     -0.3437
   1798 H          11.9988    9.7118   19.1687 H     450  UNL450      0.1146
   1799 H          13.3354    9.1688   19.9223 H     450  UNL450      0.1146
   1800 H          12.5677    8.2219   18.8438 H     450  UNL450      0.1146
   1801 N           8.8479    8.7845   22.1070 N.3   451  UNL451     -0.3437
   1802 H           8.8052    8.5430   23.0961 H     451  UNL451      0.1146
   1803 H           7.9374    9.1786   21.8746 H     451  UNL451      0.1146
   1804 H           9.5133    9.5527   22.0339 H     451  UNL451      0.1146
   1805 N          12.3455   11.4127   -1.5496 N.3   452  UNL452     -0.3437
   1806 H          11.6011   10.7457   -1.3515 H     452  UNL452      0.1146
   1807 H          12.1896   12.2017   -0.9238 H     452  UNL452      0.1146
   1808 H          13.2088   10.9716   -1.2356 H     452  UNL452      0.1146
   1809 N          12.2222   11.5334    1.9929 N.3   453  UNL453     -0.3437
   1810 H          11.7805   11.8240    2.8640 H     453  UNL453      0.1146
   1811 H          12.9478   12.2230    1.8022 H     453  UNL453      0.1146
   1812 H          12.7097   10.6633    2.2018 H     453  UNL453      0.1146
   1813 N          12.0090   10.9224    4.2194 N.3   454  UNL454     -0.3437
   1814 H          11.5673   11.2130    5.0905 H     454  UNL454      0.1146
   1815 H          12.7346   11.6120    4.0288 H     454  UNL454      0.1146
   1816 H          12.4965   10.0523    4.4283 H     454  UNL454      0.1146
   1817 N          12.6249   11.7256    6.4475 N.3   455  UNL455     -0.3437
   1818 H          12.8036   12.0162    5.4873 H     455  UNL455      0.1146
   1819 H          11.9823   12.4152    6.8347 H     455  UNL455      0.1146
   1820 H          12.0983   10.8555    6.3842 H     455  UNL455      0.1146
   1821 N          12.1932   11.6266    8.2111 N.3   456  UNL456     -0.3437
   1822 H          11.7515   11.9172    9.0822 H     456  UNL456      0.1146
   1823 H          12.9188   12.3162    8.0204 H     456  UNL456      0.1146
   1824 H          12.6807   10.7565    8.4200 H     456  UNL456      0.1146
   1825 N          12.6040   11.2997   10.7426 N.3   457  UNL457     -0.3437
   1826 H          13.0616   11.5903    9.8797 H     457  UNL457      0.1146
   1827 H          11.8750   11.9893   10.9199 H     457  UNL457      0.1146
   1828 H          12.1204   10.4296   10.5248 H     457  UNL457      0.1146
   1829 N          12.2370   11.9189   12.6116 N.3   458  UNL458     -0.3437
   1830 H          11.7953   12.2095   13.4827 H     458  UNL458      0.1146
   1831 H          12.9626   12.6085   12.4209 H     458  UNL458      0.1146
   1832 H          12.7245   11.0488   12.8205 H     458  UNL458      0.1146
   1833 N          12.1872   11.3025   14.8003 N.3   459  UNL459     -0.3437
   1834 H          11.7455   11.5931   15.6714 H     459  UNL459      0.1146
   1835 H          12.9128   11.9921   14.6096 H     459  UNL459      0.1146
   1836 H          12.6747   10.4324   15.0092 H     459  UNL459      0.1146
   1837 N          12.0440   11.0247   17.0504 N.3   460  UNL460     -0.3437
   1838 H          11.6023   11.3153   17.9215 H     460  UNL460      0.1146
   1839 H          12.7696   11.7143   16.8597 H     460  UNL460      0.1146
   1840 H          12.5315   10.1546   17.2593 H     460  UNL460      0.1146
   1841 N          12.3305   11.5128   19.6161 N.3   461  UNL461     -0.3437
   1842 H          11.8888   11.8034   20.4872 H     461  UNL461      0.1146
   1843 H          13.0561   12.2024   19.4254 H     461  UNL461      0.1146
   1844 H          12.8180   10.6427   19.8250 H     461  UNL461      0.1146
   1845 N          11.8893   12.3775   22.2250 N.3   462  UNL462     -0.3437
   1846 H          11.4476   12.6681   23.0961 H     462  UNL462      0.1146
   1847 H          12.6149   13.0671   22.0343 H     462  UNL462      0.1146
   1848 H          12.3768   11.5074   22.4339 H     462  UNL462      0.1146
   1849 N          14.1162   -1.0994   -1.3590 N.3   463  UNL463     -0.3437
   1850 H          13.6745   -0.8088   -0.4879 H     463  UNL463      0.1146
   1851 H          14.8418   -0.4098   -1.5497 H     463  UNL463      0.1146
   1852 H          14.6037   -1.9695   -1.1501 H     463  UNL463      0.1146
   1853 N          14.0532   -1.3399    1.5522 N.3   464  UNL464     -0.3437
   1854 H          14.6730   -0.5762    1.2857 H     464  UNL464      0.1146
   1855 H          13.8514   -1.8505    0.6937 H     464  UNL464      0.1146
   1856 H          14.6126   -1.9679    2.1275 H     464  UNL464      0.1146
   1857 N          14.1601   -1.2116    3.6540 N.3   465  UNL465     -0.3437
   1858 H          13.5240   -0.5695    4.1246 H     465  UNL465      0.1146
   1859 H          15.0439   -0.7131    3.5602 H     465  UNL465      0.1146
   1860 H          14.3334   -1.9689    4.3134 H     465  UNL465      0.1146
   1861 N          14.0837   -0.6592    6.5417 N.3   466  UNL466     -0.3437
   1862 H          13.8599   -1.5551    6.1109 H     466  UNL466      0.1146
   1863 H          15.0124   -0.7668    6.9473 H     466  UNL466      0.1146
   1864 H          14.1875    0.0033    5.7744 H     466  UNL466      0.1146
   1865 N          14.3501   -1.7276    8.6130 N.3   467  UNL467     -0.3437
   1866 H          13.7347   -1.2408    7.9629 H     467  UNL467      0.1146
   1867 H          15.1858   -1.9682    8.0820 H     467  UNL467      0.1146
   1868 H          14.6429   -1.0316    9.2973 H     467  UNL467      0.1146
   1869 N          14.1539   -0.2097   11.2822 N.3   468  UNL468     -0.3437
   1870 H          13.9301   -1.1934   11.1390 H     468  UNL468      0.1146
   1871 H          15.0826   -0.1911   11.7014 H     468  UNL468      0.1146
   1872 H          14.2576    0.1931   10.3520 H     468  UNL468      0.1146
   1873 N          14.4922   -1.7285   12.9669 N.3   469  UNL469     -0.3437
   1874 H          13.8764   -0.9636   12.6949 H     469  UNL469      0.1146
   1875 H          15.0259   -1.9696   12.1330 H     469  UNL469      0.1146
   1876 H          15.1620   -1.3299   13.6234 H     469  UNL469      0.1146
   1877 N          14.2924   -1.0960   15.4110 N.3   470  UNL470     -0.3437
   1878 H          13.7847   -1.9678   15.2678 H     470  UNL470      0.1146
   1879 H          15.1841   -1.3560   15.8302 H     470  UNL470      0.1146
   1880 H          14.5118   -0.7427   14.4808 H     470  UNL470      0.1146
   1881 N          14.4140   -0.7251   17.4390 N.3   471  UNL471     -0.3437
   1882 H          13.9723   -1.5969   17.1505 H     471  UNL471      0.1146
   1883 H          15.1396   -0.9851   18.1056 H     471  UNL471      0.1146
   1884 H          14.9015   -0.3718   16.6169 H     471  UNL471      0.1146
   1885 N          14.2303   -1.4887   19.4657 N.3   472  UNL472     -0.3437
   1886 H          13.7886   -0.8402   18.8155 H     472  UNL472      0.1146
   1887 H          14.9559   -1.9682   18.9346 H     472  UNL472      0.1146
   1888 H          14.7178   -0.9121   20.1499 H     472  UNL472      0.1146
   1889 N          13.8186   -0.7718   22.9695 N.3   473  UNL473     -0.3437
   1890 H          14.7869   -0.4812   23.0974 H     473  UNL473      0.1146
   1891 H          13.3981   -0.0822   22.3481 H     473  UNL473      0.1146
   1892 H          13.8541   -1.6419   22.4403 H     473  UNL473      0.1146
   1893 N          13.8529    1.5966   -0.2485 N.3   474  UNL474     -0.3437
   1894 H          14.4292    2.3895    0.0298 H     474  UNL474      0.1146
   1895 H          13.8238    1.6142   -1.2670 H     474  UNL474      0.1146
   1896 H          14.3820    0.7628    0.0029 H     474  UNL474      0.1146
   1897 N          14.1016    1.8371    1.7657 N.3   475  UNL475     -0.3437
   1898 H          13.6599    2.5626    1.2027 H     475  UNL475      0.1146
   1899 H          14.8272    1.4286    1.1783 H     475  UNL475      0.1146
   1900 H          14.5891    2.3227    2.5173 H     475  UNL475      0.1146
   1901 N          14.8228    0.4627    4.5224 N.3   476  UNL476     -0.3437
   1902 H          14.2604    1.2360    4.8746 H     476  UNL476      0.1146
   1903 H          15.3129    0.8217    3.7042 H     476  UNL476      0.1146
   1904 H          15.5393    0.2928    5.2268 H     476  UNL476      0.1146
   1905 N          14.2736    1.9973    6.2152 N.3   477  UNL477     -0.3437
   1906 H          13.8319    2.2879    7.0863 H     477  UNL477      0.1146
   1907 H          14.9992    2.6869    6.0245 H     477  UNL477      0.1146
   1908 H          14.7611    1.1272    6.4241 H     477  UNL477      0.1146
   1909 N          14.0850    0.8357    8.5247 N.3   478  UNL478     -0.3437
   1910 H          14.3591    1.1278    9.4617 H     478  UNL478      0.1146
   1911 H          14.4331    1.5555    7.8930 H     478  UNL478      0.1146
   1912 H          14.6278   -0.0025    8.3218 H     478  UNL478      0.1146
   1913 N          14.3877    2.3155   10.4902 N.3   479  UNL479     -0.3437
   1914 H          13.9460    2.6061   11.3613 H     479  UNL479      0.1146
   1915 H          15.1133    3.0051   10.2995 H     479  UNL479      0.1146
   1916 H          14.8752    1.4454   10.6991 H     479  UNL479      0.1146
   1917 N          14.4943    1.1994   12.5308 N.3   480  UNL480     -0.3437
   1918 H          14.1535    0.4191   13.0905 H     480  UNL480      0.1146
   1919 H          13.9409    1.1943   11.6752 H     480  UNL480      0.1146
   1920 H          14.2260    2.0441   13.0337 H     480  UNL480      0.1146
   1921 N          13.8328    0.7756   15.0285 N.3   481  UNL481     -0.3437
   1922 H          13.3911   -0.0962   14.7400 H     481  UNL481      0.1146
   1923 H          14.5584    0.5157   15.6951 H     481  UNL481      0.1146
   1924 H          14.3203    1.1290   14.2064 H     481  UNL481      0.1146
   1925 N          13.9002    1.1596   17.3695 N.3   482  UNL482     -0.3437
   1926 H          13.4585    0.4140   16.8336 H     482  UNL482      0.1146
   1927 H          14.6258    0.7123   17.9279 H     482  UNL482      0.1146
   1928 H          14.3877    1.7426   16.6907 H     482  UNL482      0.1146
   1929 N          12.1677    2.6904   19.5283 N.3   483  UNL483     -0.3437
   1930 H          11.8924    2.2390   20.3994 H     483  UNL483      0.1146
   1931 H          11.4537    3.3920   19.3376 H     483  UNL483      0.1146
   1932 H          13.0206    3.2075   19.7372 H     483  UNL483      0.1146
   1933 N          14.2184    2.2689   22.1907 N.3   484  UNL484     -0.3437
   1934 H          14.6345    2.0503   23.0948 H     484  UNL484      0.1146
   1935 H          14.9424    2.7475   21.6566 H     484  UNL484      0.1146
   1936 H          14.0715    1.3743   21.7254 H     484  UNL484      0.1146
   1937 N          13.8927    3.5869   -1.5495 N.3   485  UNL485     -0.3437
   1938 H          13.1550    3.6603   -0.8503 H     485  UNL485      0.1146
   1939 H          14.4016    4.4690   -1.5146 H     485  UNL485      0.1146
   1940 H          14.5371    2.8770   -1.2044 H     485  UNL485      0.1146
   1941 N          14.1626    5.0180    1.0493 N.3   486  UNL486     -0.3437
   1942 H          14.7185    5.3754    1.8249 H     486  UNL486      0.1146
   1943 H          14.5323    5.4628    0.2103 H     486  UNL486      0.1146
   1944 H          14.3957    4.0293    0.9688 H     486  UNL486      0.1146
   1945 N          14.1454    2.6488    4.2405 N.3   487  UNL487     -0.3437
   1946 H          13.7037    3.1727    3.4863 H     487  UNL487      0.1146
   1947 H          14.8710    2.0833    3.8021 H     487  UNL487      0.1146
   1948 H          14.6329    3.3369    4.8125 H     487  UNL487      0.1146
   1949 N          14.0505    4.4199    6.1960 N.3   488  UNL488     -0.3437
   1950 H          14.4050    3.5935    6.6752 H     488  UNL488      0.1146
   1951 H          14.0839    5.1761    6.8782 H     488  UNL488      0.1146
   1952 H          14.7434    4.6517    5.4857 H     488  UNL488      0.1146
   1953 N          14.2097    4.7823    8.8283 N.3   489  UNL489     -0.3437
   1954 H          13.7680    4.0367    8.2924 H     489  UNL489      0.1146
   1955 H          14.9353    4.3350    9.3867 H     489  UNL489      0.1146
   1956 H          14.6972    5.3653    8.1495 H     489  UNL489      0.1146
   1957 N          14.1015    4.5386   11.0805 N.3   490  UNL490     -0.3437
   1958 H          13.6598    4.2321   10.2149 H     490  UNL490      0.1146
   1959 H          14.8271    3.8526   11.2838 H     490  UNL490      0.1146
   1960 H          14.5890    5.4047   10.8557 H     490  UNL490      0.1146
   1961 N          14.6566    4.6653   13.1062 N.3   491  UNL491     -0.3437
   1962 H          14.2149    3.9197   12.5703 H     491  UNL491      0.1146
   1963 H          15.3822    4.2180   13.6646 H     491  UNL491      0.1146
   1964 H          15.1441    5.2483   12.4274 H     491  UNL491      0.1146
   1965 N          13.8766    2.6275   14.6346 N.3   492  UNL492     -0.3437
   1966 H          13.4349    1.8819   14.0986 H     492  UNL492      0.1146
   1967 H          14.6022    2.1802   15.1930 H     492  UNL492      0.1146
   1968 H          14.3641    3.2105   13.9557 H     492  UNL492      0.1146
   1969 N          14.2652    3.7384   17.3486 N.3   493  UNL493     -0.3437
   1970 H          13.8235    2.8666   17.0601 H     493  UNL493      0.1146
   1971 H          14.9908    3.4785   18.0152 H     493  UNL493      0.1146
   1972 H          14.7527    4.0917   16.5265 H     493  UNL493      0.1146
   1973 N          12.4402    5.0737   19.2958 N.3   494  UNL494     -0.3437
   1974 H          11.8864    5.0022   20.1482 H     494  UNL494      0.1146
   1975 H          12.2101    5.9781   18.8864 H     494  UNL494      0.1146
   1976 H          13.4115    5.1408   19.5967 H     494  UNL494      0.1146
   1977 N          12.9071    4.9620   21.2318 N.3   495  UNL495     -0.3437
   1978 H          12.4654    5.2526   22.1029 H     495  UNL495      0.1146
   1979 H          13.6327    5.6516   21.0411 H     495  UNL495      0.1146
   1980 H          13.3946    4.0919   21.4407 H     495  UNL495      0.1146
   1981 N          14.2475    7.1560   -0.6073 N.3   496  UNL496     -0.3437
   1982 H          13.8058    6.2843   -0.8958 H     496  UNL496      0.1146
   1983 H          14.9731    6.8961    0.0593 H     496  UNL496      0.1146
   1984 H          14.7350    7.5094   -1.4294 H     496  UNL496      0.1146
   1985 N          12.6940    6.5017    2.5595 N.3   497  UNL497     -0.3437
   1986 H          13.3415    6.8291    3.2750 H     497  UNL497      0.1146
   1987 H          12.5235    7.2995    1.9488 H     497  UNL497      0.1146
   1988 H          13.2120    5.8256    2.0001 H     497  UNL497      0.1146
   1989 N          14.1385    4.9363    4.0627 N.3   498  UNL498     -0.3437
   1990 H          14.1969    5.7963    4.6061 H     498  UNL498      0.1146
   1991 H          14.0137    5.2243    3.0933 H     498  UNL498      0.1146
   1992 H          15.0626    4.5096    4.1121 H     498  UNL498      0.1146
   1993 N          14.3295    7.2370    6.5080 N.3   499  UNL499     -0.3437
   1994 H          13.8878    6.4914    5.9721 H     499  UNL499      0.1146
   1995 H          15.0551    6.7897    7.0664 H     499  UNL499      0.1146
   1996 H          14.8170    7.8200    5.8292 H     499  UNL499      0.1146
   1997 N          14.0547    6.9504    8.7231 N.3   500  UNL500     -0.3437
   1998 H          13.6130    6.2048    8.1871 H     500  UNL500      0.1146
   1999 H          14.7803    6.5031    9.2815 H     500  UNL500      0.1146
   2000 H          14.5422    7.5334    8.0442 H     500  UNL500      0.1146
   2001 N          14.2155    7.0702   10.8212 N.3   501  UNL501     -0.3437
   2002 H          13.7738    6.3245   10.2852 H     501  UNL501      0.1146
   2003 H          14.9411    6.6228   11.3796 H     501  UNL501      0.1146
   2004 H          14.7030    7.6532   10.1423 H     501  UNL501      0.1146
   2005 N          14.2272    6.9780   13.2810 N.3   502  UNL502     -0.3437
   2006 H          13.7855    6.1062   12.9925 H     502  UNL502      0.1146
   2007 H          14.9528    6.7181   13.9476 H     502  UNL502      0.1146
   2008 H          14.7147    7.3313   12.4589 H     502  UNL502      0.1146
   2009 N          14.0231    5.2028   15.0650 N.3   503  UNL503     -0.3437
   2010 H          14.9914    5.4934   15.1929 H     503  UNL503      0.1146
   2011 H          13.6027    5.8924   14.4437 H     503  UNL503      0.1146
   2012 H          14.0586    4.3327   14.5358 H     503  UNL503      0.1146
   2013 N          14.6157    6.1346   16.9540 N.3   504  UNL504     -0.3437
   2014 H          14.1740    5.2628   16.6655 H     504  UNL504      0.1146
   2015 H          15.3413    5.8747   17.6206 H     504  UNL504      0.1146
   2016 H          15.1032    6.4879   16.1319 H     504  UNL504      0.1146
   2017 N          14.3404    7.2793   19.7908 N.3   505  UNL505     -0.3437
   2018 H          13.7190    7.3661   20.5937 H     505  UNL505      0.1146
   2019 H          15.2466    7.0022   20.1657 H     505  UNL505      0.1146
   2020 H          14.0008    6.4800   19.2578 H     505  UNL505      0.1146
   2021 N          14.4750    7.0069   22.2754 N.3   506  UNL506     -0.3437
   2022 H          14.1899    6.4743   23.0960 H     506  UNL506      0.1146
   2023 H          14.9286    7.8478   22.6300 H     506  UNL506      0.1146
   2024 H          15.2086    6.4603   21.8266 H     506  UNL506      0.1146
   2025 N          12.5928    8.9375   -1.1597 N.3   507  UNL507     -0.3437
   2026 H          12.1511    9.4752   -0.4153 H     507  UNL507      0.1146
   2027 H          13.3184    9.5385   -1.5478 H     507  UNL507      0.1146
   2028 H          13.0803    8.1696   -0.7002 H     507  UNL507      0.1146
   2029 N          14.6276    7.8619    2.4431 N.3   508  UNL508     -0.3437
   2030 H          14.6591    7.3341    3.3142 H     508  UNL508      0.1146
   2031 H          13.6409    8.0305    2.2524 H     508  UNL508      0.1146
   2032 H          15.0330    8.7731    2.6520 H     508  UNL508      0.1146
   2033 N          14.2565    9.3561    4.5718 N.3   509  UNL509     -0.3437
   2034 H          13.4234    8.9508    4.9961 H     509  UNL509      0.1146
   2035 H          15.0092    8.6896    4.7382 H     509  UNL509      0.1146
   2036 H          14.0918    9.3482    3.5662 H     509  UNL509      0.1146
   2037 N          13.9185    9.2692    6.5812 N.3   510  UNL510     -0.3437
   2038 H          13.7393    8.6284    7.3529 H     510  UNL510      0.1146
   2039 H          13.8837   10.2062    6.9803 H     510  UNL510      0.1146
   2040 H          14.8883    9.1161    6.3084 H     510  UNL510      0.1146
   2041 N          12.9137    9.1465    8.9502 N.3   511  UNL511     -0.3437
   2042 H          12.9453    8.6187    9.8213 H     511  UNL511      0.1146
   2043 H          11.9270    9.3151    8.7595 H     511  UNL511      0.1146
   2044 H          13.3191   10.0578    9.1591 H     511  UNL511      0.1146
   2045 N          14.0679    9.4046   10.6272 N.3   512  UNL512     -0.3437
   2046 H          14.1956    9.3186   11.6345 H     512  UNL512      0.1146
   2047 H          13.9728   10.4018   10.4403 H     512  UNL512      0.1146
   2048 H          14.9525    9.1232   10.2069 H     512  UNL512      0.1146
   2049 N          14.0431    9.6516   13.3750 N.3   513  UNL513     -0.3437
   2050 H          13.6014   10.1756   12.6209 H     513  UNL513      0.1146
   2051 H          14.7687    9.0861   12.9367 H     513  UNL513      0.1146
   2052 H          14.5306   10.3397   13.9471 H     513  UNL513      0.1146
   2053 N          14.1046    8.2502   14.9318 N.3   514  UNL514     -0.3437
   2054 H          13.6629    8.5408   15.8029 H     514  UNL514      0.1146
   2055 H          14.8302    8.9398   14.7411 H     514  UNL514      0.1146
   2056 H          14.5921    7.3801   15.1407 H     514  UNL514      0.1146
   2057 N          14.5239    7.9570   17.7584 N.3   515  UNL515     -0.3437
   2058 H          14.7764    8.5678   18.5341 H     515  UNL515      0.1146
   2059 H          14.5736    8.5333   16.9195 H     515  UNL515      0.1146
   2060 H          15.2795    7.2781   17.6779 H     515  UNL515      0.1146
   2061 N          15.1213    9.5944   19.9823 N.3   516  UNL516     -0.3437
   2062 H          14.6796    9.8689   19.1060 H     516  UNL516      0.1146
   2063 H          15.8469    8.9237   19.7331 H     516  UNL516      0.1146
   2064 H          15.6088   10.4220   20.3225 H     516  UNL516      0.1146
   2065 N          11.5582    9.7390   21.8261 N.3   517  UNL517     -0.3437
   2066 H          12.4264   10.0296   21.3786 H     517  UNL517      0.1146
   2067 H          10.8584   10.4286   21.5558 H     517  UNL517      0.1146
   2068 H          11.2854    8.8689   21.3713 H     517  UNL517      0.1146
   2069 N          13.8968   12.3784   -0.3597 N.3   518  UNL518     -0.3437
   2070 H          13.4551   12.6690    0.5114 H     518  UNL518      0.1146
   2071 H          14.6224   13.0680   -0.5504 H     518  UNL518      0.1146
   2072 H          14.3843   11.5083   -0.1508 H     518  UNL518      0.1146
   2073 N          14.4312   13.0238    2.0672 N.3   519  UNL519     -0.3437
   2074 H          13.6252   12.9740    2.6886 H     519  UNL519      0.1146
   2075 H          15.2500   13.0687    2.6722 H     519  UNL519      0.1146
   2076 H          14.4791   12.1214    1.5963 H     519  UNL519      0.1146
   2077 N          14.3084   13.0238    4.2471 N.3   520  UNL520     -0.3437
   2078 H          13.5024   12.9740    4.8685 H     520  UNL520      0.1146
   2079 H          15.1272   13.0687    4.8521 H     520  UNL520      0.1146
   2080 H          14.3563   12.1214    3.7762 H     520  UNL520      0.1146
   2081 N          14.3289   13.0238    6.3596 N.3   521  UNL521     -0.3437
   2082 H          13.5229   12.9740    6.9811 H     521  UNL521      0.1146
   2083 H          15.1477   13.0687    6.9646 H     521  UNL521      0.1146
   2084 H          14.3768   12.1214    5.8888 H     521  UNL521      0.1146
   2085 N          14.4663   13.0238    8.4695 N.3   522  UNL522     -0.3437
   2086 H          13.6603   12.9740    9.0909 H     522  UNL522      0.1146
   2087 H          15.2851   13.0687    9.0744 H     522  UNL522      0.1146
   2088 H          14.5142   12.1214    7.9986 H     522  UNL522      0.1146
   2089 N          14.2733   13.0238   10.5967 N.3   523  UNL523     -0.3437
   2090 H          13.4673   12.9740   11.2182 H     523  UNL523      0.1146
   2091 H          15.0921   13.0687   11.2017 H     523  UNL523      0.1146
   2092 H          14.3212   12.1214   10.1259 H     523  UNL523      0.1146
   2093 N          14.4254   13.0238   12.8351 N.3   524  UNL524     -0.3437
   2094 H          13.6193   12.9740   13.4566 H     524  UNL524      0.1146
   2095 H          15.2441   13.0687   13.4401 H     524  UNL524      0.1146
   2096 H          14.4732   12.1214   12.3642 H     524  UNL524      0.1146
   2097 N          14.2880   13.0238   14.8074 N.3   525  UNL525     -0.3437
   2098 H          13.4819   12.9740   15.4289 H     525  UNL525      0.1146
   2099 H          15.1067   13.0687   15.4124 H     525  UNL525      0.1146
   2100 H          14.3358   12.1214   14.3366 H     525  UNL525      0.1146
   2101 N          14.3698   13.0238   16.9435 N.3   526  UNL526     -0.3437
   2102 H          13.5638   12.9740   17.5649 H     526  UNL526      0.1146
   2103 H          15.1886   13.0687   17.5485 H     526  UNL526      0.1146
   2104 H          14.4177   12.1214   16.4726 H     526  UNL526      0.1146
   2105 N          14.5275   13.0238   19.3149 N.3   527  UNL527     -0.3437
   2106 H          13.9441   12.9740   20.1489 H     527  UNL527      0.1146
   2107 H          15.4897   13.0687   19.6475 H     527  UNL527      0.1146
   2108 H          14.4324   12.1214   18.8513 H     527  UNL527      0.1146
   2109 N          14.2038   11.5130   21.0535 N.3   528  UNL528     -0.3437
   2110 H          13.7621   11.8036   21.9246 H     528  UNL528      0.1146
   2111 H          14.9294   12.2026   20.8628 H     528  UNL528      0.1146
   2112 H          14.6913   10.6429   21.2624 H     528  UNL528      0.1146
   2113 N          16.3840   -1.0993   -1.3590 N.3   529  UNL529     -0.3437
   2114 H          15.9423   -0.8087   -0.4879 H     529  UNL529      0.1146
   2115 H          17.1096   -0.4097   -1.5497 H     529  UNL529      0.1146
   2116 H          16.8715   -1.9694   -1.1501 H     529  UNL529      0.1146
   2117 N          16.2341   -1.6476    2.1413 N.3   530  UNL530     -0.3437
   2118 H          16.2925   -0.6313    2.0967 H     530  UNL530      0.1146
   2119 H          16.1092   -1.9642    1.1808 H     530  UNL530      0.1146
   2120 H          17.1581   -1.9699    2.4253 H     530  UNL530      0.1146
   2121 N          16.2351   -1.0960    4.4797 N.3   531  UNL531     -0.3437
   2122 H          15.7934   -1.9678    4.1912 H     531  UNL531      0.1146
   2123 H          16.9607   -1.3560    5.1463 H     531  UNL531      0.1146
   2124 H          16.7226   -0.7427    3.6576 H     531  UNL531      0.1146
   2125 N          16.6203   -0.7383    6.9049 N.3   532  UNL532     -0.3437
   2126 H          16.3964   -1.7220    6.7616 H     532  UNL532      0.1146
   2127 H          17.5489   -0.7197    7.3240 H     532  UNL532      0.1146
   2128 H          16.7240   -0.3355    5.9746 H     532  UNL532      0.1146
   2129 N          16.4033   -1.3564    8.8174 N.3   533  UNL533     -0.3437
   2130 H          15.7672   -0.7468    8.3053 H     533  UNL533      0.1146
   2131 H          16.8936   -1.9059    8.1131 H     533  UNL533      0.1146
   2132 H          17.1037   -0.7449    9.2342 H     533  UNL533      0.1146
   2133 N          15.9929   -1.3877   10.7138 N.3   534  UNL534     -0.3437
   2134 H          15.3775   -1.8272   10.0308 H     534  UNL534      0.1146
   2135 H          16.8286   -1.9693   10.7541 H     534  UNL534      0.1146
   2136 H          16.2857   -0.5036   10.3001 H     534  UNL534      0.1146
   2137 N          16.5358   -1.4887   12.6457 N.3   535  UNL535     -0.3437
   2138 H          16.0941   -0.8402   11.9956 H     535  UNL535      0.1146
   2139 H          17.2614   -1.9682   12.1147 H     535  UNL535      0.1146
   2140 H          17.0233   -0.9121   13.3300 H     535  UNL535      0.1146
   2141 N          16.7360   -1.0960   15.4432 N.3   536  UNL536     -0.3437
   2142 H          16.2283   -1.9678   15.3000 H     536  UNL536      0.1146
   2143 H          17.6277   -1.3560   15.8624 H     536  UNL536      0.1146
   2144 H          16.9554   -0.7427   14.5130 H     536  UNL536      0.1146
   2145 N          16.7501   -1.0960   18.2511 N.3   537  UNL537     -0.3437
   2146 H          16.2423   -1.9678   18.1079 H     537  UNL537      0.1146
   2147 H          17.6418   -1.3560   18.6703 H     537  UNL537      0.1146
   2148 H          16.9695   -0.7427   17.3208 H     537  UNL537      0.1146
   2149 N          16.3520   -1.2228   20.4316 N.3   538  UNL538     -0.3437
   2150 H          15.9103   -1.9685   19.8956 H     538  UNL538      0.1146
   2151 H          17.0776   -1.6702   20.9900 H     538  UNL538      0.1146
   2152 H          16.8395   -0.6398   19.7528 H     538  UNL538      0.1146
   2153 N          16.1698   -1.3616   22.2791 N.3   539  UNL539     -0.3437
   2154 H          15.2085   -1.3369   21.9420 H     539  UNL539      0.1146
   2155 H          16.3696   -0.4248   22.6269 H     539  UNL539      0.1146
   2156 H          16.1651   -1.9696   23.0969 H     539  UNL539      0.1146
   2157 N          16.1040    0.5498    0.4923 N.3   540  UNL540     -0.3437
   2158 H          16.0980    1.5133    0.8240 H     540  UNL540      0.1146
   2159 H          16.2443    0.6007   -0.5158 H     540  UNL540      0.1146
   2160 H          16.9496    0.1271    0.8725 H     540  UNL540      0.1146
   2161 N          17.2268    2.3390    1.9379 N.3   541  UNL541     -0.3437
   2162 H          16.4514    2.8684    2.3340 H     541  UNL541      0.1146
   2163 H          17.9522    2.3253    2.6534 H     541  UNL541      0.1146
   2164 H          16.8972    1.3784    1.8538 H     541  UNL541      0.1146
   2165 N          16.5299    2.0196    4.0559 N.3   542  UNL542     -0.3437
   2166 H          16.5179    1.4274    4.8851 H     542  UNL542      0.1146
   2167 H          16.0383    2.8741    4.3139 H     542  UNL542      0.1146
   2168 H          17.5031    2.2870    3.9158 H     542  UNL542      0.1146
   2169 N          16.1326    1.7146    6.4111 N.3   543  UNL543     -0.3437
   2170 H          15.6909    2.0052    7.2822 H     543  UNL543      0.1146
   2171 H          16.8582    2.4042    6.2204 H     543  UNL543      0.1146
   2172 H          16.6201    0.8445    6.6200 H     543  UNL543      0.1146
   2173 N          16.2842    0.6601    8.7993 N.3   544  UNL544     -0.3437
   2174 H          15.6405    1.2335    9.3426 H     544  UNL544      0.1146
   2175 H          15.9800    0.7381    7.8299 H     544  UNL544      0.1146
   2176 H          17.1877    1.1286    8.8486 H     544  UNL544      0.1146
   2177 N          16.3988    1.9299   10.6393 N.3   545  UNL545     -0.3437
   2178 H          15.9571    2.2205   11.5104 H     545  UNL545      0.1146
   2179 H          17.1244    2.6195   10.4486 H     545  UNL545      0.1146
   2180 H          16.8863    1.0598   10.8482 H     545  UNL545      0.1146
   2181 N          16.2742    0.7749   12.9273 N.3   546  UNL546     -0.3437
   2182 H          16.0728    1.7373   13.1951 H     546  UNL546      0.1146
   2183 H          16.0690    0.7118   11.9312 H     546  UNL546      0.1146
   2184 H          17.2836    0.6648   13.0135 H     546  UNL546      0.1146
   2185 N          16.3839    0.9289   15.3123 N.3   547  UNL547     -0.3437
   2186 H          15.7018    0.3473   14.8278 H     547  UNL547      0.1146
   2187 H          16.9986    0.2859   15.8094 H     547  UNL547      0.1146
   2188 H          16.9548    1.3574   14.5851 H     547  UNL547      0.1146
   2189 N          16.2876    0.9334   17.7926 N.3   548  UNL548     -0.3437
   2190 H          15.8459    0.0616   17.5040 H     548  UNL548      0.1146
   2191 H          17.0132    0.6735   18.4592 H     548  UNL548      0.1146
   2192 H          16.7751    1.2867   16.9705 H     548  UNL548      0.1146
   2193 N          14.0702    1.5310   19.6315 N.3   549  UNL549     -0.3437
   2194 H          14.3228    2.1417   20.4071 H     549  UNL549      0.1146
   2195 H          14.1199    2.1072   18.7926 H     549  UNL549      0.1146
   2196 H          14.8258    0.8521   19.5510 H     549  UNL549      0.1146
   2197 N          15.5524    0.7677   21.5045 N.3   550  UNL550     -0.3437
   2198 H          15.7266    1.1284   22.4415 H     550  UNL550      0.1146
   2199 H          15.6693    1.5587   20.8728 H     550  UNL550      0.1146
   2200 H          16.3210    0.1302   21.3015 H     550  UNL550      0.1146
   2201 N          16.4412    2.0294   -1.5500 N.3   551  UNL551     -0.3437
   2202 H          15.7036    2.1028   -0.8508 H     551  UNL551      0.1146
   2203 H          16.9502    2.9115   -1.5150 H     551  UNL551      0.1146
   2204 H          17.0857    1.3195   -1.2049 H     551  UNL551      0.1146
   2205 N          15.7405    4.0270   -0.3964 N.3   552  UNL552     -0.3437
   2206 H          15.7989    5.0433   -0.4410 H     552  UNL552      0.1146
   2207 H          15.6156    3.7104   -1.3569 H     552  UNL552      0.1146
   2208 H          16.6646    3.7047   -0.1124 H     552  UNL552      0.1146
   2209 N          16.2204    4.5847    1.6301 N.3   553  UNL553     -0.3437
   2210 H          15.7787    3.7129    1.3416 H     553  UNL553      0.1146
   2211 H          16.9460    4.3248    2.2967 H     553  UNL553      0.1146
   2212 H          16.7079    4.9381    0.8080 H     553  UNL553      0.1146
   2213 N          16.6351    4.2947    4.0759 N.3   554  UNL554     -0.3437
   2214 H          16.1934    5.0202    3.5129 H     554  UNL554      0.1146
   2215 H          17.3607    3.8862    3.4885 H     554  UNL554      0.1146
   2216 H          17.1226    4.7803    4.8275 H     554  UNL554      0.1146
   2217 N          16.0477    4.5024    7.4204 N.3   555  UNL555     -0.3437
   2218 H          16.2343    4.3900    6.4250 H     555  UNL555      0.1146
   2219 H          16.0707    5.5054    7.5989 H     555  UNL555      0.1146
   2220 H          15.0800    4.2147    7.5591 H     555  UNL555      0.1146
   2221 N          16.4978    3.3216    8.8579 N.3   556  UNL556     -0.3437
   2222 H          17.3181    3.4730    8.2725 H     556  UNL556      0.1146
   2223 H          16.0422    4.2291    8.9433 H     556  UNL556      0.1146
   2224 H          15.8652    2.7403    8.3099 H     556  UNL556      0.1146
   2225 N          16.3286    4.3231   11.5180 N.3   557  UNL557     -0.3437
   2226 H          15.8869    4.5976   10.6417 H     557  UNL557      0.1146
   2227 H          17.0542    3.6524   11.2687 H     557  UNL557      0.1146
   2228 H          16.8161    5.1508   11.8581 H     557  UNL557      0.1146
   2229 N          16.0247    2.8905   14.8856 N.3   558  UNL558     -0.3437
   2230 H          15.5830    2.1449   14.3496 H     558  UNL558      0.1146
   2231 H          16.7503    2.4432   15.4440 H     558  UNL558      0.1146
   2232 H          16.5122    3.4735   14.2068 H     558  UNL558      0.1146
   2233 N          16.1357    2.8408   17.1825 N.3   559  UNL559     -0.3437
   2234 H          15.6940    2.0951   16.6465 H     559  UNL559      0.1146
   2235 H          16.8613    2.3934   17.7409 H     559  UNL559      0.1146
   2236 H          16.6232    3.4238   16.5036 H     559  UNL559      0.1146
   2237 N          16.2497    2.6686   19.7366 N.3   560  UNL560     -0.3437
   2238 H          15.8080    1.9229   19.2006 H     560  UNL560      0.1146
   2239 H          16.9753    2.2212   20.2950 H     560  UNL560      0.1146
   2240 H          16.7372    3.2516   19.0578 H     560  UNL560      0.1146
   2241 N          14.3974    4.7222   22.5157 N.3   561  UNL561     -0.3437
   2242 H          15.2166    5.2713   22.7722 H     561  UNL561      0.1146
   2243 H          14.5588    4.4065   21.5604 H     561  UNL561      0.1146
   2244 H          14.4269    3.8855   23.0967 H     561  UNL561      0.1146
   2245 N          16.3272    6.6025   -1.1288 N.3   562  UNL562     -0.3437
   2246 H          16.4550    6.5165   -0.1215 H     562  UNL562      0.1146
   2247 H          16.2321    7.5997   -1.3157 H     562  UNL562      0.1146
   2248 H          17.2118    6.3211   -1.5491 H     562  UNL562      0.1146
   2249 N          16.0364    6.6897    1.8276 N.3   563  UNL563     -0.3437
   2250 H          16.3555    7.5494    2.2720 H     563  UNL563      0.1146
   2251 H          16.8505    6.2982    1.3562 H     563  UNL563      0.1146
   2252 H          15.8151    6.0466    2.5865 H     563  UNL563      0.1146
   2253 N          16.0857    6.6522    4.1175 N.3   564  UNL564     -0.3437
   2254 H          15.3682    6.5663    4.8359 H     564  UNL564      0.1146
   2255 H          16.1751    7.6494    3.9277 H     564  UNL564      0.1146
   2256 H          16.9601    6.3708    4.5587 H     564  UNL564      0.1146
   2257 N          16.5333    6.8025    6.3935 N.3   565  UNL565     -0.3437
   2258 H          16.0916    5.9307    6.1050 H     565  UNL565      0.1146
   2259 H          17.2589    6.5426    7.0601 H     565  UNL565      0.1146
   2260 H          17.0208    7.1559    5.5714 H     565  UNL565      0.1146
   2261 N          16.2146    6.9289    8.9298 N.3   566  UNL566     -0.3437
   2262 H          15.7729    6.6224    8.0642 H     566  UNL566      0.1146
   2263 H          16.9402    6.2429    9.1331 H     566  UNL566      0.1146
   2264 H          16.7021    7.7950    8.7050 H     566  UNL566      0.1146
   2265 N          16.6995    6.8609   10.9464 N.3   567  UNL567     -0.3437
   2266 H          16.2578    5.9891   10.6579 H     567  UNL567      0.1146
   2267 H          17.4251    6.6010   11.6130 H     567  UNL567      0.1146
   2268 H          17.1870    7.2143   10.1243 H     567  UNL567      0.1146
   2269 N          17.0500    7.1551   13.2464 N.3   568  UNL568     -0.3437
   2270 H          16.6083    6.4094   12.7105 H     568  UNL568      0.1146
   2271 H          17.7756    6.7078   13.8048 H     568  UNL568      0.1146
   2272 H          17.5375    7.7381   12.5676 H     568  UNL568      0.1146
   2273 N          16.5699    5.5941   14.9773 N.3   569  UNL569     -0.3437
   2274 H          17.5321    5.8847   14.8098 H     569  UNL569      0.1146
   2275 H          15.9829    6.2837   14.5101 H     569  UNL569      0.1146
   2276 H          16.4455    4.7240   14.4617 H     569  UNL569      0.1146
   2277 N          16.3257    5.0349   16.9490 N.3   570  UNL570     -0.3437
   2278 H          15.8840    4.4836   16.2146 H     570  UNL570      0.1146
   2279 H          17.0513    4.4410   17.3481 H     570  UNL570      0.1146
   2280 H          16.8132    5.7942   16.4755 H     570  UNL570      0.1146
   2281 N          16.3021    5.0824   19.1994 N.3   571  UNL571     -0.3437
   2282 H          15.8604    4.3367   18.6634 H     571  UNL571      0.1146
   2283 H          17.0277    4.6350   19.7578 H     571  UNL571      0.1146
   2284 H          16.7896    5.6653   18.5205 H     571  UNL571      0.1146
   2285 N          16.6295    4.6117   22.5384 N.3   572  UNL572     -0.3437
   2286 H          16.1878    3.8661   22.0024 H     572  UNL572      0.1146
   2287 H          17.3551    4.1644   23.0968 H     572  UNL572      0.1146
   2288 H          17.1170    5.1947   21.8595 H     572  UNL572      0.1146
   2289 N          14.1445    9.5170    0.0025 N.3   573  UNL573     -0.3437
   2290 H          13.7028    9.8076    0.8736 H     573  UNL573      0.1146
   2291 H          14.8701   10.2066   -0.1882 H     573  UNL573      0.1146
   2292 H          14.6320    8.6469    0.2114 H     573  UNL573      0.1146
   2293 N          16.3466    9.1034    1.4691 N.3   574  UNL574     -0.3437
   2294 H          15.4021    9.4275    1.2660 H     574  UNL574      0.1146
   2295 H          16.4863    8.2701    0.8993 H     574  UNL574      0.1146
   2296 H          16.9741    9.8111    1.0900 H     574  UNL574      0.1146
   2297 N          16.7094    9.4035    4.8552 N.3   575  UNL575     -0.3437
   2298 H          17.5387    9.5511    4.2818 H     575  UNL575      0.1146
   2299 H          15.9156    9.6716    4.2752 H     575  UNL575      0.1146
   2300 H          16.6341    8.3958    4.9860 H     575  UNL575      0.1146
   2301 N          16.6324    9.1985    6.8417 N.3   576  UNL576     -0.3437
   2302 H          17.5005    9.4891    6.3942 H     576  UNL576      0.1146
   2303 H          15.9325    9.8881    6.5714 H     576  UNL576      0.1146
   2304 H          16.3595    8.3284    6.3869 H     576  UNL576      0.1146
   2305 N          14.9909    9.2098    8.2047 N.3   577  UNL577     -0.3437
   2306 H          14.5492    9.6809    8.9929 H     577  UNL577      0.1146
   2307 H          15.7165    9.8423    7.8702 H     577  UNL577      0.1146
   2308 H          15.4784    8.4050    8.5957 H     577  UNL577      0.1146
   2309 N          16.5358    9.0120   10.2807 N.3   578  UNL578     -0.3437
   2310 H          16.0941    9.5360    9.5265 H     578  UNL578      0.1146
   2311 H          17.2614    8.4465    9.8423 H     578  UNL578      0.1146
   2312 H          17.0233    9.7001   10.8527 H     578  UNL578      0.1146
   2313 N          16.2876    8.8950   13.0940 N.3   579  UNL579     -0.3437
   2314 H          15.8459    8.0232   12.8055 H     579  UNL579      0.1146
   2315 H          17.0132    8.6351   13.7606 H     579  UNL579      0.1146
   2316 H          16.7751    9.2483   12.2719 H     579  UNL579      0.1146
   2317 N          16.2001    7.9562   15.2776 N.3   580  UNL580     -0.3437
   2318 H          15.7584    7.6816   14.4013 H     580  UNL580      0.1146
   2319 H          16.9257    7.2632   15.4557 H     580  UNL580      0.1146
   2320 H          16.6876    8.8300   15.0847 H     580  UNL580      0.1146
   2321 N          16.1760    8.8224   17.1369 N.3   581  UNL581     -0.3437
   2322 H          16.5546    9.0057   18.0650 H     581  UNL581      0.1146
   2323 H          16.7780    9.3223   16.4842 H     581  UNL581      0.1146
   2324 H          16.3326    7.8311   16.9604 H     581  UNL581      0.1146
   2325 N          16.7034    7.2867   19.6279 N.3   582  UNL582     -0.3437
   2326 H          17.3828    6.6258   20.0020 H     582  UNL582      0.1146
   2327 H          17.1175    8.2106   19.7430 H     582  UNL582      0.1146
   2328 H          16.6700    7.1170   18.6237 H     582  UNL582      0.1146
   2329 N          13.9808    9.6002   22.3096 N.3   583  UNL583     -0.3437
   2330 H          14.2161   10.5165   22.6883 H     583  UNL583      0.1146
   2331 H          14.8652    9.1727   22.0385 H     583  UNL583      0.1146
   2332 H          13.6333    9.0524   23.0955 H     583  UNL583      0.1146
   2333 N          16.1626   11.3229   -0.1329 N.3   584  UNL584     -0.3437
   2334 H          17.0484   11.6135    0.2786 H     584  UNL584      0.1146
   2335 H          15.9471   12.0125   -0.8516 H     584  UNL584      0.1146
   2336 H          16.3547   10.4528   -0.6273 H     584  UNL584      0.1146
   2337 N          15.6741   11.1738    2.0776 N.3   585  UNL585     -0.3437
   2338 H          15.2324   11.4644    2.9487 H     585  UNL585      0.1146
   2339 H          16.3997   11.8634    1.8869 H     585  UNL585      0.1146
   2340 H          16.1616   10.3037    2.2865 H     585  UNL585      0.1146
   2341 N          16.3842   11.6764    4.0586 N.3   586  UNL586     -0.3437
   2342 H          15.9425   11.9670    4.9297 H     586  UNL586      0.1146
   2343 H          17.1098   12.3660    3.8680 H     586  UNL586      0.1146
   2344 H          16.8717   10.8063    4.2675 H     586  UNL586      0.1146
   2345 N          16.2087   11.6939    6.4257 N.3   587  UNL587     -0.3437
   2346 H          15.7670   11.9845    7.2968 H     587  UNL587      0.1146
   2347 H          16.9343   12.3835    6.2350 H     587  UNL587      0.1146
   2348 H          16.6962   10.8238    6.6346 H     587  UNL587      0.1146
   2349 N          16.3168   11.1213    8.3602 N.3   588  UNL588     -0.3437
   2350 H          15.8751   11.4119    9.2312 H     588  UNL588      0.1146
   2351 H          17.0424   11.8109    8.1695 H     588  UNL588      0.1146
   2352 H          16.8043   10.2512    8.5690 H     588  UNL588      0.1146
   2353 N          16.5330   11.9773   10.5428 N.3   589  UNL589     -0.3437
   2354 H          16.0913   12.2679   11.4139 H     589  UNL589      0.1146
   2355 H          17.2586   12.6669   10.3521 H     589  UNL589      0.1146
   2356 H          17.0205   11.1072   10.7517 H     589  UNL589      0.1146
   2357 N          15.7590   11.3025   12.8016 N.3   590  UNL590     -0.3437
   2358 H          15.3173   11.5931   13.6727 H     590  UNL590      0.1146
   2359 H          16.4846   11.9921   12.6109 H     590  UNL590      0.1146
   2360 H          16.2465   10.4324   13.0105 H     590  UNL590      0.1146
   2361 N          16.3228   11.1271   14.6483 N.3   591  UNL591     -0.3437
   2362 H          15.8811   11.4177   15.5194 H     591  UNL591      0.1146
   2363 H          17.0484   11.8167   14.4576 H     591  UNL591      0.1146
   2364 H          16.8103   10.2570   14.8572 H     591  UNL591      0.1146
   2365 N          15.6683   11.3025   17.0182 N.3   592  UNL592     -0.3437
   2366 H          15.2266   11.5931   17.8893 H     592  UNL592      0.1146
   2367 H          16.3939   11.9921   16.8275 H     592  UNL592      0.1146
   2368 H          16.1558   10.4324   17.2271 H     592  UNL592      0.1146
   2369 N          16.4106   11.3668   19.0110 N.3   593  UNL593     -0.3437
   2370 H          15.9689   11.6574   19.8821 H     593  UNL593      0.1146
   2371 H          17.1362   12.0564   18.8203 H     593  UNL593      0.1146
   2372 H          16.8981   10.4967   19.2199 H     593  UNL593      0.1146
   2373 N          16.3491   11.3083   21.9979 N.3   594  UNL594     -0.3437
   2374 H          15.9074   11.5989   22.8690 H     594  UNL594      0.1146
   2375 H          17.0747   11.9979   21.8072 H     594  UNL594      0.1146
   2376 H          16.8366   10.4382   22.2068 H     594  UNL594      0.1146
   2377 N          18.7219   -1.0993   -1.3590 N.3   595  UNL595     -0.3437
   2378 H          18.2802   -0.8087   -0.4879 H     595  UNL595      0.1146
   2379 H          19.4475   -0.4097   -1.5497 H     595  UNL595      0.1146
   2380 H          19.2094   -1.9694   -1.1501 H     595  UNL595      0.1146
   2381 N          18.1827   -0.6627    2.0529 N.3   596  UNL596     -0.3437
   2382 H          18.9119    0.0439    1.9673 H     596  UNL596      0.1146
   2383 H          17.9541   -0.9471    1.1014 H     596  UNL596      0.1146
   2384 H          18.6245   -1.4709    2.4890 H     596  UNL596      0.1146
   2385 N          18.8240   -1.2228    4.4039 N.3   597  UNL597     -0.3437
   2386 H          18.3823   -1.9685    3.8680 H     597  UNL597      0.1146
   2387 H          19.5496   -1.6702    4.9623 H     597  UNL597      0.1146
   2388 H          19.3115   -0.6398    3.7251 H     597  UNL597      0.1146
   2389 N          19.0919   -1.1891    6.8786 N.3   598  UNL598     -0.3437
   2390 H          19.7319   -1.9691    6.7354 H     598  UNL598      0.1146
   2391 H          19.6465   -0.4441    7.2978 H     598  UNL598      0.1146
   2392 H          18.8373   -0.8602    5.9484 H     598  UNL598      0.1146
   2393 N          18.3806   -1.3423    8.7231 N.3   599  UNL599     -0.3437
   2394 H          18.2198   -1.9693    7.9361 H     599  UNL599      0.1146
   2395 H          19.1507   -1.7482    9.2528 H     599  UNL599      0.1146
   2396 H          18.7402   -0.4766    8.3236 H     599  UNL599      0.1146
   2397 N          18.4916   -1.6750   11.0325 N.3   600  UNL600     -0.3437
   2398 H          17.8762   -1.1882   10.3824 H     600  UNL600      0.1146
   2399 H          19.3273   -1.9156   10.5015 H     600  UNL600      0.1146
   2400 H          18.7844   -0.9790   11.7168 H     600  UNL600      0.1146
   2401 N          18.8128   -1.8765   13.0576 N.3   601  UNL601     -0.3437
   2402 H          18.3711   -0.9730   12.8938 H     601  UNL601      0.1146
   2403 H          19.5384   -1.9673   12.3479 H     601  UNL601      0.1146
   2404 H          19.3003   -1.7935   13.9486 H     601  UNL601      0.1146
   2405 N          19.2138   -1.0960   15.4226 N.3   602  UNL602     -0.3437
   2406 H          18.7061   -1.9678   15.2793 H     602  UNL602      0.1146
   2407 H          20.1055   -1.3560   15.8417 H     602  UNL602      0.1146
   2408 H          19.4332   -0.7427   14.4923 H     602  UNL602      0.1146
   2409 N          18.8796   -1.0962   17.8100 N.3   603  UNL603     -0.3437
   2410 H          18.4379   -1.9680   17.5215 H     603  UNL603      0.1146
   2411 H          19.6052   -1.3561   18.4766 H     603  UNL603      0.1146
   2412 H          19.3671   -0.7428   16.9879 H     603  UNL603      0.1146
   2413 N          18.8314   -1.3350   20.7259 N.3   604  UNL604     -0.3437
   2414 H          18.3236   -1.9692   20.1108 H     604  UNL604      0.1146
   2415 H          19.7231   -1.7877   20.9219 H     604  UNL604      0.1146
   2416 H          19.0508   -0.5140   20.1636 H     604  UNL604      0.1146
   2417 N          18.2988   -1.0993   22.9696 N.3   605  UNL605     -0.3437
   2418 H          19.2671   -0.8087   23.0975 H     605  UNL605      0.1146
   2419 H          17.8783   -0.4097   22.3483 H     605  UNL605      0.1146
   2420 H          18.3342   -1.9694   22.4404 H     605  UNL605      0.1146
   2421 N          18.2922    1.1630    0.0243 N.3   606  UNL606     -0.3437
   2422 H          18.8686    2.0028    0.0528 H     606  UNL606      0.1146
   2423 H          18.2631    0.8753   -0.9529 H     606  UNL606      0.1146
   2424 H          18.8213    0.4425    0.5135 H     606  UNL606      0.1146
   2425 N          19.3179    1.7729    1.7917 N.3   607  UNL607     -0.3437
   2426 H          18.8762    2.6335    1.4714 H     607  UNL607      0.1146
   2427 H          20.0435    1.5587    1.1090 H     607  UNL607      0.1146
   2428 H          19.8054    2.0116    2.6541 H     607  UNL607      0.1146
   2429 N          18.2314    0.8168    4.0883 N.3   608  UNL608     -0.3437
   2430 H          17.7897   -0.0550    3.7998 H     608  UNL608      0.1146
   2431 H          18.9570    0.5569    4.7549 H     608  UNL608      0.1146
   2432 H          18.7189    1.1702    3.2662 H     608  UNL608      0.1146
   2433 N          18.3787    1.4091    6.1258 N.3   609  UNL609     -0.3437
   2434 H          17.6827    1.4260    6.8699 H     609  UNL609      0.1146
   2435 H          19.0639    2.1242    6.3659 H     609  UNL609      0.1146
   2436 H          18.8621    0.5164    6.2136 H     609  UNL609      0.1146
   2437 N          18.3089    2.1333    8.9300 N.3   610  UNL610     -0.3437
   2438 H          18.1678    3.1061    9.1985 H     610  UNL610      0.1146
   2439 H          18.0209    2.0665    7.9548 H     610  UNL610      0.1146
   2440 H          19.3168    1.9836    8.9360 H     610  UNL610      0.1146
   2441 N          18.6165    0.3015   10.1598 N.3   611  UNL611     -0.3437
   2442 H          18.1081    0.4467   11.0309 H     611  UNL611      0.1146
   2443 H          19.1028    1.1765    9.9691 H     611  UNL611      0.1146
   2444 H          19.3419   -0.3830   10.3687 H     611  UNL611      0.1146
   2445 N          18.6476    1.2373   12.3205 N.3   612  UNL612     -0.3437
   2446 H          19.4741    1.4825   12.8639 H     612  UNL612      0.1146
   2447 H          18.8741    1.4548   11.3511 H     612  UNL612      0.1146
   2448 H          18.5700    0.2225   12.3699 H     612  UNL612      0.1146
   2449 N          18.7075    1.0184   15.1862 N.3   613  UNL613     -0.3437
   2450 H          18.2658    0.1466   14.8977 H     613  UNL613      0.1146
   2451 H          19.4331    0.7584   15.8528 H     613  UNL613      0.1146
   2452 H          19.1950    1.3717   14.3641 H     613  UNL613      0.1146
   2453 N          18.3832    0.9116   17.4571 N.3   614  UNL614     -0.3437
   2454 H          17.9415    0.1660   16.9211 H     614  UNL614      0.1146
   2455 H          19.1088    0.4643   18.0155 H     614  UNL614      0.1146
   2456 H          18.8707    1.4946   16.7782 H     614  UNL614      0.1146
   2457 N          18.7776    1.1786   19.6102 N.3   615  UNL615     -0.3437
   2458 H          18.3359    0.3068   19.3217 H     615  UNL615      0.1146
   2459 H          19.5032    0.9187   20.2768 H     615  UNL615      0.1146
   2460 H          19.2651    1.5320   18.7881 H     615  UNL615      0.1146
   2461 N          17.9152    1.1291   21.4378 N.3   616  UNL616     -0.3437
   2462 H          17.6079    1.0792   22.4081 H     616  UNL616      0.1146
   2463 H          18.9328    1.1739   21.4674 H     616  UNL616      0.1146
   2464 H          17.6859    0.2267   21.0238 H     616  UNL616      0.1146
   2465 N          18.2268    4.3057   -1.5500 N.3   617  UNL617     -0.3437
   2466 H          17.4891    4.3791   -0.8508 H     617  UNL617      0.1146
   2467 H          18.7357    5.1878   -1.5150 H     617  UNL617      0.1146
   2468 H          18.8712    3.5958   -1.2049 H     617  UNL617      0.1146
   2469 N          18.4210    4.5939    1.2330 N.3   618  UNL618     -0.3437
   2470 H          18.4284    4.1045    2.1268 H     618  UNL618      0.1146
   2471 H          19.3915    4.8346    1.0366 H     618  UNL618      0.1146
   2472 H          18.1571    3.8999    0.5350 H     618  UNL618      0.1146
   2473 N          19.1834    3.0316    4.7265 N.3   619  UNL619     -0.3437
   2474 H          20.0515    3.3222    4.2790 H     619  UNL619      0.1146
   2475 H          18.4835    3.7212    4.4562 H     619  UNL619      0.1146
   2476 H          18.9106    2.1615    4.2717 H     619  UNL619      0.1146
   2477 N          17.9676    3.5046    6.3262 N.3   620  UNL620     -0.3437
   2478 H          17.2090    3.7923    6.9428 H     620  UNL620      0.1146
   2479 H          18.0398    4.2288    5.6129 H     620  UNL620      0.1146
   2480 H          18.8202    3.5704    6.8803 H     620  UNL620      0.1146
   2481 N          18.4992    4.9608    8.6311 N.3   621  UNL621     -0.3437
   2482 H          17.8777    4.8035    9.4232 H     621  UNL621      0.1146
   2483 H          19.4053    4.5843    8.9060 H     621  UNL621      0.1146
   2484 H          18.1595    4.3575    7.8835 H     621  UNL621      0.1146
   2485 N          18.5574    3.0588   10.9238 N.3   622  UNL622     -0.3437
   2486 H          18.4946    3.4544   11.8608 H     622  UNL622      0.1146
   2487 H          18.2021    3.7751   10.2921 H     622  UNL622      0.1146
   2488 H          19.5523    2.9738   10.7209 H     622  UNL622      0.1146
   2489 N          18.5119    4.6117   12.7544 N.3   623  UNL623     -0.3437
   2490 H          18.3944    4.9168   11.7893 H     623  UNL623      0.1146
   2491 H          18.5526    5.4618   13.3148 H     623  UNL623      0.1146
   2492 H          17.6413    4.1480   13.0104 H     623  UNL623      0.1146
   2493 N          17.8412    2.3375   13.5881 N.3   624  UNL624     -0.3437
   2494 H          17.6141    2.7196   14.5050 H     624  UNL624      0.1146
   2495 H          18.6924    2.8115   13.2893 H     624  UNL624      0.1146
   2496 H          18.1018    1.3651   13.7457 H     624  UNL624      0.1146
   2497 N          18.1553    3.0892   17.2176 N.3   625  UNL625     -0.3437
   2498 H          17.7136    2.3435   16.6817 H     625  UNL625      0.1146
   2499 H          18.8809    2.6418   17.7760 H     625  UNL625      0.1146
   2500 H          18.6428    3.6721   16.5388 H     625  UNL625      0.1146
   2501 N          18.5466    3.4787   19.6540 N.3   626  UNL626     -0.3437
   2502 H          18.1049    2.6069   19.3655 H     626  UNL626      0.1146
   2503 H          19.2722    3.2188   20.3206 H     626  UNL626      0.1146
   2504 H          19.0341    3.8321   18.8319 H     626  UNL626      0.1146
   2505 N          19.4786    2.5705   22.2259 N.3   627  UNL627     -0.3437
   2506 H          19.5101    2.0427   23.0970 H     627  UNL627      0.1146
   2507 H          18.4919    2.7391   22.0352 H     627  UNL627      0.1146
   2508 H          19.8839    3.4817   22.4348 H     627  UNL627      0.1146
   2509 N          18.3709    6.8191   -0.0085 N.3   628  UNL628     -0.3437
   2510 H          17.5566    7.1419    0.5121 H     628  UNL628      0.1146
   2511 H          19.1039    6.6667    0.6829 H     628  UNL628      0.1146
   2512 H          18.1274    5.8970   -0.3674 H     628  UNL628      0.1146
   2513 N          18.1669    7.0391    2.1301 N.3   629  UNL629     -0.3437
   2514 H          17.7252    7.3297    3.0012 H     629  UNL629      0.1146
   2515 H          18.8925    7.7287    1.9394 H     629  UNL629      0.1146
   2516 H          18.6544    6.1690    2.3390 H     629  UNL629      0.1146
   2517 N          18.5310    5.3582    4.4122 N.3   630  UNL630     -0.3437
   2518 H          18.8512    6.3014    4.6275 H     630  UNL630      0.1146
   2519 H          18.4156    5.3249    3.4003 H     630  UNL630      0.1146
   2520 H          19.3127    4.7406    4.6262 H     630  UNL630      0.1146
   2521 N          18.4152    5.3923    6.5926 N.3   631  UNL631     -0.3437
   2522 H          17.9735    5.9163    5.8385 H     631  UNL631      0.1146
   2523 H          19.1408    4.8268    6.1542 H     631  UNL631      0.1146
   2524 H          18.9027    6.0804    7.1647 H     631  UNL631      0.1146
   2525 N          18.2765    7.0674    8.4425 N.3   632  UNL632     -0.3437
   2526 H          18.4042    6.4221    9.2207 H     632  UNL632      0.1146
   2527 H          18.1814    7.9931    8.8580 H     632  UNL632      0.1146
   2528 H          19.1611    7.0762    7.9368 H     632  UNL632      0.1146
   2529 N          18.7966    6.9744   10.6484 N.3   633  UNL633     -0.3437
   2530 H          19.1511    6.0425   10.8586 H     633  UNL633      0.1146
   2531 H          18.8300    7.4921   11.5255 H     633  UNL633      0.1146
   2532 H          19.4895    7.4079   10.0399 H     633  UNL633      0.1146
   2533 N          19.0579    7.0638   13.1005 N.3   634  UNL634     -0.3437
   2534 H          18.6162    6.5125   12.3661 H     634  UNL634      0.1146
   2535 H          19.7835    6.4700   13.4996 H     634  UNL634      0.1146
   2536 H          19.5454    7.8231   12.6270 H     634  UNL634      0.1146
   2537 N          17.9483    4.1445   15.0428 N.3   635  UNL635     -0.3437
   2538 H          17.7522    4.6685   14.1911 H     635  UNL635      0.1146
   2539 H          18.7717    3.5790   14.8414 H     635  UNL635      0.1146
   2540 H          18.2424    4.8326   15.7344 H     635  UNL635      0.1146
   2541 N          18.5279    4.7955   17.7007 N.3   636  UNL636     -0.3437
   2542 H          18.3648    5.1832   18.6288 H     636  UNL636      0.1146
   2543 H          18.0603    5.4229   17.0479 H     636  UNL636      0.1146
   2544 H          19.5261    4.8997   17.5242 H     636  UNL636      0.1146
   2545 N          17.9751    7.1292   17.2636 N.3   637  UNL637     -0.3437
   2546 H          17.5947    7.8627   17.8600 H     637  UNL637      0.1146
   2547 H          18.6551    7.5850   16.6569 H     637  UNL637      0.1146
   2548 H          18.5117    6.5181   17.8776 H     637  UNL637      0.1146
   2549 N          16.5210    7.9044   21.5005 N.3   638  UNL638     -0.3437
   2550 H          16.5525    7.3766   22.3716 H     638  UNL638      0.1146
   2551 H          15.5343    8.0730   21.3098 H     638  UNL638      0.1146
   2552 H          16.9263    8.8156   21.7094 H     638  UNL638      0.1146
   2553 N          18.7293   10.0005   -1.4068 N.3   639  UNL639     -0.3437
   2554 H          18.9712   10.4327   -0.5163 H     639  UNL639      0.1146
   2555 H          18.8076    8.9949   -1.2615 H     639  UNL639      0.1146
   2556 H          17.7377   10.1871   -1.5493 H     639  UNL639      0.1146
   2557 N          18.5495    8.9376    0.5909 N.3   640  UNL640     -0.3437
   2558 H          17.9025    9.2619   -0.1264 H     640  UNL640      0.1146
   2559 H          19.1108    8.2081    0.1538 H     640  UNL640      0.1146
   2560 H          19.1857    9.7138    0.7671 H     640  UNL640      0.1146
   2561 N          18.1757   10.2939    2.7956 N.3   641  UNL641     -0.3437
   2562 H          17.7340    9.5483    2.2597 H     641  UNL641      0.1146
   2563 H          18.9013    9.8466    3.3540 H     641  UNL641      0.1146
   2564 H          18.6632   10.8769    2.1168 H     641  UNL641      0.1146
   2565 N          18.5029    7.5009    6.1692 N.3   642  UNL642     -0.3437
   2566 H          18.0612    8.2264    5.6062 H     642  UNL642      0.1146
   2567 H          19.2285    7.0924    5.5818 H     642  UNL642      0.1146
   2568 H          18.9904    7.9865    6.9208 H     642  UNL642      0.1146
   2569 N          18.3793    9.4154    8.0236 N.3   643  UNL643     -0.3437
   2570 H          19.0180    9.0322    8.7190 H     643  UNL643      0.1146
   2571 H          18.3695   10.4229    8.1762 H     643  UNL643      0.1146
   2572 H          18.8289    9.2725    7.1204 H     643  UNL643      0.1146
   2573 N          18.6189    9.1898   10.7672 N.3   644  UNL644     -0.3437
   2574 H          17.9974    8.3926   10.8960 H     644  UNL644      0.1146
   2575 H          19.5250    8.8009   10.5101 H     644  UNL644      0.1146
   2576 H          18.2792    9.6800    9.9409 H     644  UNL644      0.1146
   2577 N          18.4872    9.3190   13.0266 N.3   645  UNL645     -0.3437
   2578 H          18.8888    8.9358   13.8811 H     645  UNL645      0.1146
   2579 H          18.4322   10.3265   13.1693 H     645  UNL645      0.1146
   2580 H          19.1862    9.1761   12.2991 H     645  UNL645      0.1146
   2581 N          19.0438    7.6045   14.9310 N.3   646  UNL646     -0.3437
   2582 H          18.0752    7.5561   15.2438 H     646  UNL646      0.1146
   2583 H          19.4110    8.4850   15.2891 H     646  UNL646      0.1146
   2584 H          19.5384    6.8689   15.4336 H     646  UNL646      0.1146
   2585 N          18.2294    9.3161   17.1853 N.3   647  UNL647     -0.3437
   2586 H          19.0468    8.9329   17.6579 H     647  UNL647      0.1146
   2587 H          18.2657   10.3236   17.3338 H     647  UNL647      0.1146
   2588 H          18.3883    9.1732   16.1889 H     647  UNL647      0.1146
   2589 N          18.7278    9.7508   19.4818 N.3   648  UNL648     -0.3437
   2590 H          18.2861    8.8790   19.1933 H     648  UNL648      0.1146
   2591 H          19.4534    9.4908   20.1484 H     648  UNL648      0.1146
   2592 H          19.2153   10.1041   18.6597 H     648  UNL648      0.1146
   2593 N          19.0873    7.6025   21.2260 N.3   649  UNL649     -0.3437
   2594 H          19.1188    7.0747   22.0971 H     649  UNL649      0.1146
   2595 H          18.1006    7.7711   21.0353 H     649  UNL649      0.1146
   2596 H          19.4927    8.5137   21.4349 H     649  UNL649      0.1146
   2597 N          18.2413   12.3784   -0.8612 N.3   650  UNL650     -0.3437
   2598 H          18.9359   12.6690   -1.5478 H     650  UNL650      0.1146
   2599 H          17.4926   13.0680   -0.9099 H     650  UNL650      0.1146
   2600 H          17.8449   11.5083   -1.2137 H     650  UNL650      0.1146
   2601 N          18.0492   13.0212    1.7484 N.3   651  UNL651     -0.3437
   2602 H          17.2432   12.9713    2.3698 H     651  UNL651      0.1146
   2603 H          18.8680   13.0660    2.3534 H     651  UNL651      0.1146
   2604 H          18.0971   12.1188    1.2775 H     651  UNL651      0.1146
   2605 N          18.5141   13.0238    4.4196 N.3   652  UNL652     -0.3437
   2606 H          17.7081   12.9740    5.0410 H     652  UNL652      0.1146
   2607 H          19.3329   13.0687    5.0246 H     652  UNL652      0.1146
   2608 H          18.5620   12.1214    3.9487 H     652  UNL652      0.1146
   2609 N          18.3160   11.2850    6.0134 N.3   653  UNL653     -0.3437
   2610 H          17.8743   11.5756    6.8845 H     653  UNL653      0.1146
   2611 H          19.0416   11.9746    5.8227 H     653  UNL653      0.1146
   2612 H          18.8035   10.4149    6.2223 H     653  UNL653      0.1146
   2613 N          18.3983   12.5638    8.8523 N.3   654  UNL654     -0.3437
   2614 H          18.7247   13.0684    8.0294 H     654  UNL654      0.1146
   2615 H          17.4448   12.8830    9.0177 H     654  UNL654      0.1146
   2616 H          18.3228   11.5872    8.5715 H     654  UNL654      0.1146
   2617 N          18.6402   11.4660   10.7095 N.3   655  UNL655     -0.3437
   2618 H          18.1985   11.7566   11.5806 H     655  UNL655      0.1146
   2619 H          19.3658   12.1556   10.5188 H     655  UNL655      0.1146
   2620 H          19.1277   10.5959   10.9184 H     655  UNL655      0.1146
   2621 N          18.1182   12.5638   13.0756 N.3   656  UNL656     -0.3437
   2622 H          17.4607   13.0684   12.4827 H     656  UNL656      0.1146
   2623 H          17.9405   12.8830   14.0269 H     656  UNL656      0.1146
   2624 H          17.8286   11.5872   13.0484 H     656  UNL656      0.1146
   2625 N          18.4532   10.9107   14.5927 N.3   657  UNL657     -0.3437
   2626 H          18.0115   11.2013   15.4638 H     657  UNL657      0.1146
   2627 H          19.1788   11.6003   14.4020 H     657  UNL657      0.1146
   2628 H          18.9407   10.0406   14.8016 H     657  UNL657      0.1146
   2629 N          18.3601   12.3784   17.2857 N.3   658  UNL658     -0.3437
   2630 H          19.3284   12.6690   17.4136 H     658  UNL658      0.1146
   2631 H          17.9396   13.0680   16.6644 H     658  UNL658      0.1146
   2632 H          18.3955   11.5083   16.7565 H     658  UNL658      0.1146
   2633 N          18.6404   12.3775   19.2771 N.3   659  UNL659     -0.3437
   2634 H          18.1987   12.6681   20.1482 H     659  UNL659      0.1146
   2635 H          19.3660   13.0671   19.0864 H     659  UNL659      0.1146
   2636 H          19.1279   11.5074   19.4860 H     659  UNL659      0.1146
   2637 N          18.5820   11.0247   21.9307 N.3   660  UNL660     -0.3437
   2638 H          18.1403   11.3153   22.8018 H     660  UNL660      0.1146
   2639 H          19.3076   11.7143   21.7400 H     660  UNL660      0.1146
   2640 H          19.0695   10.1546   22.1396 H     660  UNL660      0.1146
   2641 N          21.0482   -1.0993   -1.3590 N.3   661  UNL661     -0.3437
   2642 H          20.6065   -0.8087   -0.4879 H     661  UNL661      0.1146
   2643 H          21.7738   -0.4097   -1.5497 H     661  UNL661      0.1146
   2644 H          21.5357   -1.9694   -1.1501 H     661  UNL661      0.1146
   2645 N          20.2902   -1.8586    1.5188 N.3   662  UNL662     -0.3437
   2646 H          20.0888   -0.8963    1.7867 H     662  UNL662      0.1146
   2647 H          20.0849   -1.9217    0.5227 H     662  UNL662      0.1146
   2648 H          21.2996   -1.9688    1.6050 H     662  UNL662      0.1146
   2649 N          21.1563   -1.0513    4.0483 N.3   663  UNL663     -0.3437
   2650 H          20.7146   -1.9695    4.0336 H     663  UNL663      0.1146
   2651 H          21.8819   -1.1000    4.7621 H     663  UNL663      0.1146
   2652 H          21.6438   -0.9599    3.1581 H     663  UNL663      0.1146
   2653 N          21.4716   -1.7654    6.4985 N.3   664  UNL664     -0.3437
   2654 H          21.0609   -1.2145    5.7461 H     664  UNL664      0.1146
   2655 H          22.4272   -1.9685    6.2087 H     664  UNL664      0.1146
   2656 H          21.5479   -1.1373    7.2972 H     664  UNL664      0.1146
   2657 N          20.6577   -1.0637    8.8491 N.3   665  UNL665     -0.3437
   2658 H          20.1499   -1.8528    8.4517 H     665  UNL665      0.1146
   2659 H          21.5494   -1.4371    9.1713 H     665  UNL665      0.1146
   2660 H          20.8771   -0.4484    8.0670 H     665  UNL665      0.1146
   2661 N          21.1573   -1.5976   10.9486 N.3   666  UNL666     -0.3437
   2662 H          20.9302   -0.7537   10.4245 H     666  UNL666      0.1146
   2663 H          22.0085   -1.9685   10.5287 H     666  UNL666      0.1146
   2664 H          21.4179   -1.2861   11.8832 H     666  UNL666      0.1146
   2665 N          21.1651   -1.4887   13.5834 N.3   667  UNL667     -0.3437
   2666 H          20.7234   -0.8402   12.9333 H     667  UNL667      0.1146
   2667 H          21.8907   -1.9682   13.0524 H     667  UNL667      0.1146
   2668 H          21.6526   -0.9121   14.2677 H     667  UNL667      0.1146
   2669 N          21.1368    0.4895   15.3361 N.3   668  UNL668     -0.3437
   2670 H          20.6291   -0.2996   14.9388 H     668  UNL668      0.1146
   2671 H          22.0285    0.1161   15.6584 H     668  UNL668      0.1146
   2672 H          21.3562    1.1048   14.5541 H     668  UNL668      0.1146
   2673 N          21.1518   -1.1801   17.4575 N.3   669  UNL669     -0.3437
   2674 H          20.6441   -1.9692   17.0601 H     669  UNL669      0.1146
   2675 H          22.0436   -1.5535   17.7798 H     669  UNL669      0.1146
   2676 H          21.3713   -0.5648   16.6754 H     669  UNL669      0.1146
   2677 N          21.0112   -1.1801   19.9412 N.3   670  UNL670     -0.3437
   2678 H          20.5034   -1.9692   19.5438 H     670  UNL670      0.1146
   2679 H          21.9029   -1.5535   20.2635 H     670  UNL670      0.1146
   2680 H          21.2306   -0.5648   19.1591 H     670  UNL670      0.1146
   2681 N          20.4618   -0.4888   22.0025 N.3   671  UNL671     -0.3437
   2682 H          20.9543   -0.1982   22.8459 H     671  UNL671      0.1146
   2683 H          20.6949    0.2008   21.2894 H     671  UNL671      0.1146
   2684 H          20.9016   -1.3589   21.7061 H     671  UNL671      0.1146
   2685 N          20.5475    1.5722   -0.6310 N.3   672  UNL672     -0.3437
   2686 H          21.5513    1.6582   -0.7839 H     672  UNL672      0.1146
   2687 H          20.1364    1.4102   -1.5492 H     672  UNL672      0.1146
   2688 H          20.4161    0.7076   -0.1080 H     672  UNL672      0.1146
   2689 N          21.3470    2.2646    1.6165 N.3   673  UNL673     -0.3437
   2690 H          21.1268    2.7651    2.4764 H     673  UNL673      0.1146
   2691 H          22.3559    2.3430    1.4963 H     673  UNL673      0.1146
   2692 H          21.1628    1.2811    1.8090 H     673  UNL673      0.1146
   2693 N          20.5376    1.5584    4.0457 N.3   674  UNL674     -0.3437
   2694 H          20.9531    1.4928    4.9738 H     674  UNL674      0.1146
   2695 H          21.3173    1.6254    3.3930 H     674  UNL674      0.1146
   2696 H          20.1005    0.6549    3.8692 H     674  UNL674      0.1146
   2697 N          20.4309    0.7493    6.5505 N.3   675  UNL675     -0.3437
   2698 H          20.4893    1.7656    6.5059 H     675  UNL675      0.1146
   2699 H          20.3060    0.4327    5.5900 H     675  UNL675      0.1146
   2700 H          21.3549    0.4270    6.8345 H     675  UNL675      0.1146
   2701 N          20.5864    1.1832    8.6670 N.3   676  UNL676     -0.3437
   2702 H          19.9043    0.4834    8.3785 H     676  UNL676      0.1146
   2703 H          21.2011    0.7183    9.3336 H     676  UNL676      0.1146
   2704 H          21.1573    1.3747    7.8449 H     676  UNL676      0.1146
   2705 N          20.7010    1.6964   10.5458 N.3   677  UNL677     -0.3437
   2706 H          20.2593    1.9870   11.4169 H     677  UNL677      0.1146
   2707 H          21.4266    2.3860   10.3551 H     677  UNL677      0.1146
   2708 H          21.1885    0.8263   10.7547 H     677  UNL677      0.1146
   2709 N          21.1282    1.1173   12.8494 N.3   678  UNL678     -0.3437
   2710 H          20.6537    0.6573   13.6251 H     678  UNL678      0.1146
   2711 H          20.8535    0.6083   12.0105 H     678  UNL678      0.1146
   2712 H          20.7048    2.0406   12.7689 H     678  UNL678      0.1146
   2713 N          20.7268    2.5444   15.0470 N.3   679  UNL679     -0.3437
   2714 H          20.2851    1.6262   15.0324 H     679  UNL679      0.1146
   2715 H          21.4524    2.4957   15.7608 H     679  UNL679      0.1146
   2716 H          21.2143    2.6358   14.1569 H     679  UNL679      0.1146
   2717 N          20.9694    1.3334   17.8072 N.3   680  UNL680     -0.3437
   2718 H          20.5277    0.4616   17.5187 H     680  UNL680      0.1146
   2719 H          21.6950    1.0735   18.4738 H     680  UNL680      0.1146
   2720 H          21.4569    1.6868   16.9851 H     680  UNL680      0.1146
   2721 N          21.0659    1.8746   20.1073 N.3   681  UNL681     -0.3437
   2722 H          20.6242    1.1290   19.5714 H     681  UNL681      0.1146
   2723 H          21.7915    1.4273   20.6657 H     681  UNL681      0.1146
   2724 H          21.5534    2.4576   19.4285 H     681  UNL681      0.1146
   2725 N          21.6298    2.1478   22.9695 N.3   682  UNL682     -0.3437
   2726 H          22.5981    2.4384   23.0974 H     682  UNL682      0.1146
   2727 H          21.2093    2.8374   22.3481 H     682  UNL682      0.1146
   2728 H          21.6653    1.2777   22.4403 H     682  UNL682      0.1146
   2729 N          20.7224    4.1652   -1.5495 N.3   683  UNL683     -0.3437
   2730 H          19.9848    4.2386   -0.8503 H     683  UNL683      0.1146
   2731 H          21.2314    5.0473   -1.5146 H     683  UNL683      0.1146
   2732 H          21.3669    3.4553   -1.2044 H     683  UNL683      0.1146
   2733 N          21.1552    4.6115    0.4498 N.3   684  UNL684     -0.3437
   2734 H          21.2136    3.7404    0.9753 H     684  UNL684      0.1146
   2735 H          21.0303    5.3491    1.1417 H     684  UNL684      0.1146
   2736 H          22.0792    4.7586    0.0462 H     684  UNL684      0.1146
   2737 N          20.4113    4.5157    3.1108 N.3   685  UNL685     -0.3437
   2738 H          19.9696    3.9644    2.3764 H     685  UNL685      0.1146
   2739 H          21.1369    3.9219    3.5099 H     685  UNL685      0.1146
   2740 H          20.8988    5.2750    2.6373 H     685  UNL685      0.1146
   2741 N          20.8262    4.4969    6.4291 N.3   686  UNL686     -0.3437
   2742 H          20.3845    3.6251    6.1406 H     686  UNL686      0.1146
   2743 H          21.5518    4.2370    7.0957 H     686  UNL686      0.1146
   2744 H          21.3137    4.8502    5.6070 H     686  UNL686      0.1146
   2745 N          20.1502    3.2599    8.3842 N.3   687  UNL687     -0.3437
   2746 H          20.2086    3.6562    9.3212 H     687  UNL687      0.1146
   2747 H          20.0253    4.0496    7.7525 H     687  UNL687      0.1146
   2748 H          21.0742    2.8813    8.1813 H     687  UNL687      0.1146
   2749 N          20.4598    4.2648   10.6126 N.3   688  UNL688     -0.3437
   2750 H          20.5876    4.1789   11.6199 H     688  UNL688      0.1146
   2751 H          20.3648    5.2620   10.4256 H     688  UNL688      0.1146
   2752 H          21.3444    3.9834   10.1922 H     688  UNL688      0.1146
   2753 N          20.6743    4.5706   13.1967 N.3   689  UNL689     -0.3437
   2754 H          20.2326    5.0945   12.4425 H     689  UNL689      0.1146
   2755 H          21.3999    4.0051   12.7583 H     689  UNL689      0.1146
   2756 H          21.1618    5.2586   13.7688 H     689  UNL689      0.1146
   2757 N          19.9043    4.8766   15.0398 N.3   690  UNL690     -0.3437
   2758 H          19.4626    5.1672   15.9109 H     690  UNL690      0.1146
   2759 H          20.6299    5.5662   14.8491 H     690  UNL690      0.1146
   2760 H          20.3918    4.0065   15.2487 H     690  UNL690      0.1146
   2761 N          20.4408    3.3614   17.2991 N.3   691  UNL691     -0.3437
   2762 H          19.9991    2.4896   17.0106 H     691  UNL691      0.1146
   2763 H          21.1664    3.1015   17.9657 H     691  UNL691      0.1146
   2764 H          20.9283    3.7148   16.4770 H     691  UNL691      0.1146
   2765 N          21.1550    4.3661   19.3061 N.3   692  UNL692     -0.3437
   2766 H          21.1865    3.8383   20.1772 H     692  UNL692      0.1146
   2767 H          20.1683    4.5347   19.1154 H     692  UNL692      0.1146
   2768 H          21.5603    5.2773   19.5149 H     692  UNL692      0.1146
   2769 N          18.5362    4.6532   21.1675 N.3   693  UNL693     -0.3437
   2770 H          18.8632    4.2378   22.0386 H     693  UNL693      0.1146
   2771 H          17.6296    4.2287   20.9768 H     693  UNL693      0.1146
   2772 H          18.3490    5.6329   21.3764 H     693  UNL693      0.1146
   2773 N          20.5136    6.6032   -0.2886 N.3   694  UNL694     -0.3437
   2774 H          20.0719    7.3286   -0.8516 H     694  UNL694      0.1146
   2775 H          21.2392    6.1946   -0.8760 H     694  UNL694      0.1146
   2776 H          21.0011    7.0887    0.4630 H     694  UNL694      0.1146
   2777 N          20.5021    7.0410    2.4231 N.3   695  UNL695     -0.3437
   2778 H          20.0604    6.2953    1.8871 H     695  UNL695      0.1146
   2779 H          21.2277    6.5936    2.9815 H     695  UNL695      0.1146
   2780 H          20.9896    7.6240    1.7443 H     695  UNL695      0.1146
   2781 N          20.6688    7.2045    4.5094 N.3   696  UNL696     -0.3437
   2782 H          20.2271    6.4588    3.9735 H     696  UNL696      0.1146
   2783 H          21.3944    6.7572    5.0678 H     696  UNL696      0.1146
   2784 H          21.1563    7.7875    3.8306 H     696  UNL696      0.1146
   2785 N          20.7122    6.8183    6.7391 N.3   697  UNL697     -0.3437
   2786 H          20.2705    6.2670    6.0047 H     697  UNL697      0.1146
   2787 H          21.4378    6.2245    7.1382 H     697  UNL697      0.1146
   2788 H          21.1997    7.5776    6.2656 H     697  UNL697      0.1146
   2789 N          20.4989    6.0079    8.5355 N.3   698  UNL698     -0.3437
   2790 H          20.0572    6.2985    9.4066 H     698  UNL698      0.1146
   2791 H          21.2245    6.6975    8.3448 H     698  UNL698      0.1146
   2792 H          20.9864    5.1378    8.7444 H     698  UNL698      0.1146
   2793 N          20.8904    7.1240   10.6215 N.3   699  UNL699     -0.3437
   2794 H          20.4487    7.7844   11.2596 H     699  UNL699      0.1146
   2795 H          21.6160    7.6473   10.1336 H     699  UNL699      0.1146
   2796 H          21.3779    6.4490   11.2090 H     699  UNL699      0.1146
   2797 N          21.1913    7.3285   12.8077 N.3   700  UNL700     -0.3437
   2798 H          20.7496    6.4567   12.5192 H     700  UNL700      0.1146
   2799 H          21.9169    7.0685   13.4743 H     700  UNL700      0.1146
   2800 H          21.6788    7.6818   11.9856 H     700  UNL700      0.1146
   2801 N          21.1968    7.2277   15.0175 N.3   701  UNL701     -0.3437
   2802 H          20.7551    6.6764   14.2831 H     701  UNL701      0.1146
   2803 H          21.9224    6.6338   15.4166 H     701  UNL701      0.1146
   2804 H          21.6843    7.9870   14.5440 H     701  UNL701      0.1146
   2805 N          20.9080    5.4714   17.0475 N.3   702  UNL702     -0.3437
   2806 H          20.4663    5.7620   17.9186 H     702  UNL702      0.1146
   2807 H          21.6336    6.1610   16.8568 H     702  UNL702      0.1146
   2808 H          21.3955    4.6013   17.2564 H     702  UNL702      0.1146
   2809 N          19.5650    6.7000   19.2915 N.3   703  UNL703     -0.3437
   2810 H          18.7884    7.3320   19.1027 H     703  UNL703      0.1146
   2811 H          20.3598    7.2935   19.5248 H     703  UNL703      0.1146
   2812 H          19.3226    6.2055   20.1489 H     703  UNL703      0.1146
   2813 N          20.7803    4.9573   21.3311 N.3   704  UNL704     -0.3437
   2814 H          20.2549    4.8981   22.2022 H     704  UNL704      0.1146
   2815 H          20.8969    5.9515   21.1404 H     704  UNL704      0.1146
   2816 H          21.7117    4.6005   21.5400 H     704  UNL704      0.1146
   2817 N          20.9453    8.7983   -1.5495 N.3   705  UNL705     -0.3437
   2818 H          20.2633    9.0889   -0.8503 H     705  UNL705      0.1146
   2819 H          21.6947    9.4879   -1.5146 H     705  UNL705      0.1146
   2820 H          21.3480    7.9282   -1.2044 H     705  UNL705      0.1146
   2821 N          21.6285    8.7652    0.3965 N.3   706  UNL706     -0.3437
   2822 H          20.8416    8.7672    1.0440 H     706  UNL706      0.1146
   2823 H          21.6397    9.6884   -0.0348 H     706  UNL706      0.1146
   2824 H          22.4668    8.7148    0.9736 H     706  UNL706      0.1146
   2825 N          20.5487    9.4208    2.7164 N.3   707  UNL707     -0.3437
   2826 H          20.1070    8.5490    2.4279 H     707  UNL707      0.1146
   2827 H          21.2743    9.1609    3.3830 H     707  UNL707      0.1146
   2828 H          21.0362    9.7742    1.8943 H     707  UNL707      0.1146
   2829 N          20.4758    9.5528    5.3972 N.3   708  UNL708     -0.3437
   2830 H          20.0341    8.9784    6.1136 H     708  UNL708      0.1146
   2831 H          21.2014   10.0869    5.8733 H     708  UNL708      0.1146
   2832 H          20.9633    8.9056    4.7793 H     708  UNL708      0.1146
   2833 N          20.3267    9.8317    7.9082 N.3   709  UNL709     -0.3437
   2834 H          19.8850   10.4320    8.6031 H     709  UNL709      0.1146
   2835 H          21.0523   10.3967    7.4693 H     709  UNL709      0.1146
   2836 H          20.8142    9.1066    8.4327 H     709  UNL709      0.1146
   2837 N          21.2679   10.3320   10.7553 N.3   710  UNL710     -0.3437
   2838 H          21.1513   10.6226    9.7856 H     710  UNL710      0.1146
   2839 H          20.7704   11.0216   11.3169 H     710  UNL710      0.1146
   2840 H          20.7465    9.4619   10.8524 H     710  UNL710      0.1146
   2841 N          20.4729   10.1918   12.8543 N.3   711  UNL711     -0.3437
   2842 H          20.0312   10.4824   13.7254 H     711  UNL711      0.1146
   2843 H          21.1985   10.8814   12.6636 H     711  UNL711      0.1146
   2844 H          20.9604    9.3217   13.0632 H     711  UNL711      0.1146
   2845 N          20.7255    9.4552   14.7863 N.3   712  UNL712     -0.3437
   2846 H          20.8532    8.8098   15.5645 H     712  UNL712      0.1146
   2847 H          20.6304   10.3808   15.2018 H     712  UNL712      0.1146
   2848 H          21.6100    9.4639   14.2806 H     712  UNL712      0.1146
   2849 N          21.1517    7.4340   18.1244 N.3   713  UNL713     -0.3437
   2850 H          21.4445    6.5756   18.5889 H     713  UNL713      0.1146
   2851 H          21.5710    8.1970   18.6540 H     713  UNL713      0.1146
   2852 H          21.6150    7.4343   17.2168 H     713  UNL713      0.1146
   2853 N          20.5957    9.4717   17.3276 N.3   714  UNL714     -0.3437
   2854 H          20.1540    9.7462   16.4513 H     714  UNL714      0.1146
   2855 H          21.3213    8.8010   17.0784 H     714  UNL714      0.1146
   2856 H          21.0832   10.2993   17.6678 H     714  UNL714      0.1146
   2857 N          20.8235    7.4296   23.0974 N.3   715  UNL715     -0.3437
   2858 H          21.6916    7.7202   22.6499 H     715  UNL715      0.1146
   2859 H          20.1236    8.1192   22.8271 H     715  UNL715      0.1146
   2860 H          20.5506    6.5595   22.6426 H     715  UNL715      0.1146
   2861 N          20.3266   12.3687   -0.1959 N.3   716  UNL716     -0.3437
   2862 H          19.8849   12.6593    0.6752 H     716  UNL716      0.1146
   2863 H          21.0522   13.0583   -0.3866 H     716  UNL716      0.1146
   2864 H          20.8141   11.4986    0.0130 H     716  UNL716      0.1146
   2865 N          20.1542   11.8138    2.1711 N.3   717  UNL717     -0.3437
   2866 H          19.7125   12.1044    3.0422 H     717  UNL717      0.1146
   2867 H          20.8798   12.5034    1.9804 H     717  UNL717      0.1146
   2868 H          20.6417   10.9437    2.3800 H     717  UNL717      0.1146
   2869 N          21.0254   11.3573    4.1902 N.3   718  UNL718     -0.3437
   2870 H          21.4460   11.6777    5.0613 H     718  UNL718      0.1146
   2871 H          21.4354   10.4441    3.9995 H     718  UNL718      0.1146
   2872 H          20.0428   11.1859    4.3991 H     718  UNL718      0.1146
   2873 N          20.5515   12.3784    6.6341 N.3   719  UNL719     -0.3437
   2874 H          21.4197   12.6690    6.1866 H     719  UNL719      0.1146
   2875 H          19.8517   13.0680    6.3638 H     719  UNL719      0.1146
   2876 H          20.2787   11.5083    6.1793 H     719  UNL719      0.1146
   2877 N          20.4542   12.5633    8.4534 N.3   720  UNL720     -0.3437
   2878 H          19.9124   12.3412    9.2874 H     720  UNL720      0.1146
   2879 H          21.3590   12.8937    8.7859 H     720  UNL720      0.1146
   2880 H          20.6332   11.6737    7.9897 H     720  UNL720      0.1146
   2881 N          20.8931   13.0214   10.6318 N.3   721  UNL721     -0.3437
   2882 H          20.0871   12.9715   11.2532 H     721  UNL721      0.1146
   2883 H          21.7119   13.0662   11.2368 H     721  UNL721      0.1146
   2884 H          20.9410   12.1189   10.1609 H     721  UNL721      0.1146
   2885 N          20.2205   13.0215   12.8454 N.3   722  UNL722     -0.3437
   2886 H          19.6372   12.9716   13.6794 H     722  UNL722      0.1146
   2887 H          21.1827   13.0663   13.1779 H     722  UNL722      0.1146
   2888 H          20.1254   12.1191   12.3817 H     722  UNL722      0.1146
   2889 N          20.7149   13.0238   14.7753 N.3   723  UNL723     -0.3437
   2890 H          19.9089   12.9740   15.3967 H     723  UNL723      0.1146
   2891 H          21.5337   13.0687   15.3803 H     723  UNL723      0.1146
   2892 H          20.7628   12.1214   14.3044 H     723  UNL723      0.1146
   2893 N          21.0906   12.3787   17.5407 N.3   724  UNL724     -0.3437
   2894 H          20.6570   12.6693   16.6655 H     724  UNL724      0.1146
   2895 H          20.8091   13.0683   18.2362 H     724  UNL724      0.1146
   2896 H          20.6314   11.5086   17.8063 H     724  UNL724      0.1146
   2897 N          20.5898   10.6738   19.4291 N.3   725  UNL725     -0.3437
   2898 H          20.1481   10.9644   20.3002 H     725  UNL725      0.1146
   2899 H          21.3154   11.3634   19.2384 H     725  UNL725      0.1146
   2900 H          21.0773    9.8037   19.6380 H     725  UNL725      0.1146
   2901 N          20.9622   12.3784   22.4005 N.3   726  UNL726     -0.3437
   2902 H          20.5287   12.6690   21.5253 H     726  UNL726      0.1146
   2903 H          20.6807   13.0680   23.0960 H     726  UNL726      0.1146
   2904 H          20.5031   11.5083   22.6661 H     726  UNL726      0.1146
   2905 N          23.3774   -1.0993   -1.3590 N.3   727  UNL727     -0.3437
   2906 H          22.9357   -0.8087   -0.4879 H     727  UNL727      0.1146
   2907 H          24.1030   -0.4097   -1.5497 H     727  UNL727      0.1146
   2908 H          23.8649   -1.9694   -1.1501 H     727  UNL727      0.1146
   2909 N          23.3783   -1.4029    2.1041 N.3   728  UNL728     -0.3437
   2910 H          22.9366   -0.8789    1.3500 H     728  UNL728      0.1146
   2911 H          24.1039   -1.9684    1.6657 H     728  UNL728      0.1146
   2912 H          23.8658   -0.7148    2.6762 H     728  UNL728      0.1146
   2913 N          22.5360    0.1378    4.4068 N.3   729  UNL729     -0.3437
   2914 H          22.0943    0.6618    3.6527 H     729  UNL729      0.1146
   2915 H          23.2616   -0.4276    3.9685 H     729  UNL729      0.1146
   2916 H          23.0235    0.8259    4.9789 H     729  UNL729      0.1146
   2917 N          23.3783    0.5222    6.6308 N.3   730  UNL730     -0.3437
   2918 H          22.9366   -0.2235    6.0949 H     730  UNL730      0.1146
   2919 H          24.1039    0.0748    7.1892 H     730  UNL730      0.1146
   2920 H          23.8658    1.1052    5.9520 H     730  UNL730      0.1146
   2921 N          23.3773   -1.0960    8.9156 N.3   731  UNL731     -0.3437
   2922 H          22.9356   -1.9678    8.6271 H     731  UNL731      0.1146
   2923 H          24.1029   -1.3560    9.5822 H     731  UNL731      0.1146
   2924 H          23.8648   -0.7427    8.0936 H     731  UNL731      0.1146
   2925 N          22.5943   -0.0080   10.8883 N.3   732  UNL732     -0.3437
   2926 H          22.1526   -0.0080    9.9700 H     732  UNL732      0.1146
   2927 H          23.3199   -0.7225   10.8510 H     732  UNL732      0.1146
   2928 H          23.0818    0.8835   10.9654 H     732  UNL732      0.1146
   2929 N          23.3783    0.1588   12.8613 N.3   733  UNL733     -0.3437
   2930 H          22.9366   -0.7594   12.8467 H     733  UNL733      0.1146
   2931 H          24.1039    0.1101   13.5752 H     733  UNL733      0.1146
   2932 H          23.8658    0.2502   11.9712 H     733  UNL733      0.1146
   2933 N          23.2801   -1.0513   15.1084 N.3   734  UNL734     -0.3437
   2934 H          22.8384   -1.9695   15.0937 H     734  UNL734      0.1146
   2935 H          24.0057   -1.1000   15.8222 H     734  UNL734      0.1146
   2936 H          23.7676   -0.9599   14.2182 H     734  UNL734      0.1146
   2937 N          23.3774   -0.3201   17.6620 N.3   735  UNL735     -0.3437
   2938 H          22.9357   -0.0456   16.7857 H     735  UNL735      0.1146
   2939 H          24.1030   -0.9908   17.4128 H     735  UNL735      0.1146
   2940 H          23.8649    0.5075   18.0022 H     735  UNL735      0.1146
   2941 N          23.3783   -1.2222   19.9588 N.3   736  UNL736     -0.3437
   2942 H          22.9366   -1.9679   19.4229 H     736  UNL736      0.1146
   2943 H          24.1039   -1.6695   20.5172 H     736  UNL736      0.1146
   2944 H          23.8658   -0.6392   19.2800 H     736  UNL736      0.1146
   2945 N          22.8037   -1.0993   22.3609 N.3   737  UNL737     -0.3437
   2946 H          22.2229   -0.8087   21.5757 H     737  UNL737      0.1146
   2947 H          22.6491   -0.4097   23.0950 H     737  UNL737      0.1146
   2948 H          22.3985   -1.9694   22.7031 H     737  UNL737      0.1146
   2949 N          23.3783    1.1389    0.4806 N.3   738  UNL738     -0.3437
   2950 H          22.9366    0.2207    0.4659 H     738  UNL738      0.1146
   2951 H          24.1039    1.0902    1.1944 H     738  UNL738      0.1146
   2952 H          23.8658    1.2303   -0.4096 H     738  UNL738      0.1146
   2953 N          23.8385    2.2616    2.4923 N.3   739  UNL739     -0.3437
   2954 H          24.1028    2.5522    1.5520 H     739  UNL739      0.1146
   2955 H          23.1637    2.9512    2.8202 H     739  UNL739      0.1146
   2956 H          23.3198    1.3915    2.3820 H     739  UNL739      0.1146
   2957 N          23.3783    2.5995    4.6526 N.3   740  UNL740     -0.3437
   2958 H          22.9366    1.8538    4.1167 H     740  UNL740      0.1146
   2959 H          24.1039    2.1521    5.2110 H     740  UNL740      0.1146
   2960 H          23.8658    3.1825    3.9738 H     740  UNL740      0.1146
   2961 N          22.2224    2.5586    6.6425 N.3   741  UNL741     -0.3437
   2962 H          21.7807    1.8129    6.1065 H     741  UNL741      0.1146
   2963 H          22.9480    2.1113    7.2009 H     741  UNL741      0.1146
   2964 H          22.7099    3.1416    5.9637 H     741  UNL741      0.1146
   2965 N          22.7560    1.4207    8.5617 N.3   742  UNL742     -0.3437
   2966 H          22.3143    1.7113    9.4328 H     742  UNL742      0.1146
   2967 H          23.4816    2.1103    8.3710 H     742  UNL742      0.1146
   2968 H          23.2435    0.5506    8.7706 H     742  UNL742      0.1146
   2969 N          23.8007    2.4767   10.5851 N.3   743  UNL743     -0.3437
   2970 H          22.8471    2.7210   10.8485 H     743  UNL743      0.1146
   2971 H          24.1037    1.7686   11.2523 H     743  UNL743      0.1146
   2972 H          23.7311    2.0034    9.6854 H     743  UNL743      0.1146
   2973 N          24.0315    2.5567   12.7319 N.3   744  UNL744     -0.3437
   2974 H          23.2425    2.8473   12.1562 H     744  UNL744      0.1146
   2975 H          24.1035    3.2463   13.4786 H     744  UNL744      0.1146
   2976 H          23.7472    1.6866   13.1796 H     744  UNL744      0.1146
   2977 N          23.3783    1.6452   14.6922 N.3   745  UNL745     -0.3437
   2978 H          22.9366    1.9358   15.5633 H     745  UNL745      0.1146
   2979 H          24.1039    2.3348   14.5015 H     745  UNL745      0.1146
   2980 H          23.8658    0.7751   14.9011 H     745  UNL745      0.1146
   2981 N          23.3783    2.3803   17.4281 N.3   746  UNL746     -0.3437
   2982 H          22.9366    1.6346   16.8921 H     746  UNL746      0.1146
   2983 H          24.1039    1.9330   17.9865 H     746  UNL746      0.1146
   2984 H          23.8658    2.9633   16.7492 H     746  UNL746      0.1146
   2985 N          23.3783    2.5089   19.5904 N.3   747  UNL747     -0.3437
   2986 H          22.9366    1.7633   19.0544 H     747  UNL747      0.1146
   2987 H          24.1039    2.0616   20.1488 H     747  UNL747      0.1146
   2988 H          23.8658    3.0919   18.9116 H     747  UNL747      0.1146
   2989 N          23.3783    0.6411   21.3722 N.3   748  UNL748     -0.3437
   2990 H          22.9366    0.9317   22.2433 H     748  UNL748      0.1146
   2991 H          24.1039    1.3307   21.1815 H     748  UNL748      0.1146
   2992 H          23.8658   -0.2290   21.5811 H     748  UNL748      0.1146
   2993 N          23.1680    3.0483   -1.0137 N.3   749  UNL749     -0.3437
   2994 H          23.5841    2.8297   -0.1096 H     749  UNL749      0.1146
   2995 H          23.8920    3.5270   -1.5478 H     749  UNL749      0.1146
   2996 H          23.0211    2.1537   -1.4790 H     749  UNL749      0.1146
   2997 N          23.8006    4.2796    0.9463 N.3   750  UNL750     -0.3437
   2998 H          23.8818    4.2815   -0.0694 H     750  UNL750      0.1146
   2999 H          24.1030    5.2027    1.2541 H     750  UNL750      0.1146
   3000 H          22.8030    4.2291    1.1482 H     750  UNL750      0.1146
   3001 N          22.7880    4.6665    4.1175 N.3   751  UNL751     -0.3437
   3002 H          22.2071    4.9571    3.3323 H     751  UNL751      0.1146
   3003 H          22.6333    5.3561    4.8516 H     751  UNL751      0.1146
   3004 H          22.3828    3.7964    4.4597 H     751  UNL751      0.1146
   3005 N          23.6969    4.2871    6.2064 N.3   752  UNL752     -0.3437
   3006 H          23.7284    3.7593    7.0775 H     752  UNL752      0.1146
   3007 H          22.7102    4.4557    6.0157 H     752  UNL752      0.1146
   3008 H          24.1023    5.1984    6.4153 H     752  UNL752      0.1146
   3009 N          24.0318    4.3947    8.6352 N.3   753  UNL753     -0.3437
   3010 H          23.2428    4.6853    8.0596 H     753  UNL753      0.1146
   3011 H          24.1038    5.0843    9.3820 H     753  UNL753      0.1146
   3012 H          23.7475    3.5246    9.0829 H     753  UNL753      0.1146
   3013 N          22.5012    4.7632   10.8239 N.3   754  UNL754     -0.3437
   3014 H          22.0595    5.2871   10.0698 H     754  UNL754      0.1146
   3015 H          23.2268    4.1977   10.3856 H     754  UNL754      0.1146
   3016 H          22.9887    5.4512   11.3960 H     754  UNL754      0.1146
   3017 N          22.9373    4.4915   12.7283 N.3   755  UNL755     -0.3437
   3018 H          23.3881    5.1995   13.3062 H     755  UNL755      0.1146
   3019 H          23.6087    4.2548   11.9992 H     755  UNL755      0.1146
   3020 H          22.8548    3.6618   13.3141 H     755  UNL755      0.1146
   3021 N          22.7178    4.4970   15.1262 N.3   756  UNL756     -0.3437
   3022 H          22.3983    4.7876   14.2032 H     756  UNL756      0.1146
   3023 H          22.3508    5.1866   15.7805 H     756  UNL756      0.1146
   3024 H          22.2289    3.6269   15.3316 H     756  UNL756      0.1146
   3025 N          23.3783    4.6620   17.3989 N.3   757  UNL757     -0.3437
   3026 H          22.9366    4.1107   16.6645 H     757  UNL757      0.1146
   3027 H          24.1039    4.0681   17.7980 H     757  UNL757      0.1146
   3028 H          23.8658    5.4213   16.9254 H     757  UNL757      0.1146
   3029 N          23.3784    4.8934   19.8857 N.3   758  UNL758     -0.3437
   3030 H          22.9367    4.1478   19.3498 H     758  UNL758      0.1146
   3031 H          24.1040    4.4461   20.4441 H     758  UNL758      0.1146
   3032 H          23.8659    5.4764   19.2069 H     758  UNL758      0.1146
   3033 N          23.3783    4.2806   22.2027 N.3   759  UNL759     -0.3437
   3034 H          22.9366    4.5712   23.0738 H     759  UNL759      0.1146
   3035 H          24.1039    4.9702   22.0120 H     759  UNL759      0.1146
   3036 H          23.8658    3.4105   22.4116 H     759  UNL759      0.1146
   3037 N          23.3783    6.7498   -0.7222 N.3   760  UNL760     -0.3437
   3038 H          22.9366    5.8780   -1.0107 H     760  UNL760      0.1146
   3039 H          24.1039    6.4899   -0.0556 H     760  UNL760      0.1146
   3040 H          23.8658    7.1032   -1.5443 H     760  UNL760      0.1146
   3041 N          22.7082    6.6754    2.1804 N.3   761  UNL761     -0.3437
   3042 H          22.2665    6.9499    1.3041 H     761  UNL761      0.1146
   3043 H          23.4338    6.0047    1.9312 H     761  UNL761      0.1146
   3044 H          23.1957    7.5031    2.5206 H     761  UNL761      0.1146
   3045 N          23.3783    7.1082    4.4774 N.3   762  UNL762     -0.3437
   3046 H          22.9366    6.3625    3.9414 H     762  UNL762      0.1146
   3047 H          24.1039    6.6609    5.0358 H     762  UNL762      0.1146
   3048 H          23.8658    7.6912    3.7985 H     762  UNL762      0.1146
   3049 N          23.1655    6.8335    6.7186 N.3   763  UNL763     -0.3437
   3050 H          22.7238    6.0878    6.1826 H     763  UNL763      0.1146
   3051 H          23.8911    6.3861    7.2770 H     763  UNL763      0.1146
   3052 H          23.6530    7.4164    6.0397 H     763  UNL763      0.1146
   3053 N          23.3783    7.0411    8.8195 N.3   764  UNL764     -0.3437
   3054 H          22.9366    6.2954    8.2836 H     764  UNL764      0.1146
   3055 H          24.1039    6.5937    9.3779 H     764  UNL764      0.1146
   3056 H          23.8658    7.6241    8.1407 H     764  UNL764      0.1146
   3057 N          23.3783    7.1084   10.9205 N.3   765  UNL765     -0.3437
   3058 H          22.9366    6.3627   10.3846 H     765  UNL765      0.1146
   3059 H          24.1039    6.6610   11.4789 H     765  UNL765      0.1146
   3060 H          23.8658    7.6913   10.2417 H     765  UNL765      0.1146
   3061 N          23.3783    7.1374   12.9952 N.3   766  UNL766     -0.3437
   3062 H          22.9366    6.3918   12.4592 H     766  UNL766      0.1146
   3063 H          24.1039    6.6901   13.5536 H     766  UNL766      0.1146
   3064 H          23.8658    7.7204   12.3163 H     766  UNL766      0.1146
   3065 N          23.3783    7.0820   15.0640 N.3   767  UNL767     -0.3437
   3066 H          22.9366    6.3364   14.5280 H     767  UNL767      0.1146
   3067 H          24.1039    6.6347   15.6224 H     767  UNL767      0.1146
   3068 H          23.8658    7.6650   14.3851 H     767  UNL767      0.1146
   3069 N          23.3785    7.3277   17.3053 N.3   768  UNL768     -0.3437
   3070 H          22.9368    6.5820   16.7693 H     768  UNL768      0.1146
   3071 H          24.1041    6.8803   17.8637 H     768  UNL768      0.1146
   3072 H          23.8660    7.9107   16.6264 H     768  UNL768      0.1146
   3073 N          23.2711    7.4213   19.5583 N.3   769  UNL769     -0.3437
   3074 H          22.8294    6.6756   19.0223 H     769  UNL769      0.1146
   3075 H          23.9967    6.9739   20.1167 H     769  UNL769      0.1146
   3076 H          23.7586    8.0043   18.8794 H     769  UNL769      0.1146
   3077 N          23.1364    7.1639   22.1212 N.3   770  UNL770     -0.3437
   3078 H          22.6947    6.4182   21.5853 H     770  UNL770      0.1146
   3079 H          23.8620    6.7166   22.6796 H     770  UNL770      0.1146
   3080 H          23.6239    7.7469   21.4424 H     770  UNL770      0.1146
   3081 N          23.3784    9.4004   -0.7251 N.3   771  UNL771     -0.3437
   3082 H          22.9367    8.5286   -1.0136 H     771  UNL771      0.1146
   3083 H          24.1040    9.1404   -0.0585 H     771  UNL771      0.1146
   3084 H          23.8659    9.7537   -1.5472 H     771  UNL771      0.1146
   3085 N          23.5529   10.0601    1.7836 N.3   772  UNL772     -0.3437
   3086 H          22.5968    9.7618    1.9713 H     772  UNL772      0.1146
   3087 H          24.1037    9.2061    1.7076 H     772  UNL772      0.1146
   3088 H          23.5410   10.4705    0.8510 H     772  UNL772      0.1146
   3089 N          23.8104    9.8792    3.9126 N.3   773  UNL773     -0.3437
   3090 H          22.8853   10.1698    3.5992 H     773  UNL773      0.1146
   3091 H          24.1023   10.5688    4.6037 H     773  UNL773      0.1146
   3092 H          23.6729    9.0091    4.4248 H     773  UNL773      0.1146
   3093 N          23.6969    9.1175    6.0663 N.3   774  UNL774     -0.3437
   3094 H          23.7284    8.5897    6.9374 H     774  UNL774      0.1146
   3095 H          22.7102    9.2861    5.8756 H     774  UNL774      0.1146
   3096 H          24.1023   10.0287    6.2752 H     774  UNL774      0.1146
   3097 N          22.5459    8.9415    8.3411 N.3   775  UNL775     -0.3437
   3098 H          22.2264    9.2321    7.4182 H     775  UNL775      0.1146
   3099 H          22.1788    9.6311    8.9955 H     775  UNL775      0.1146
   3100 H          22.0569    8.0714    8.5466 H     775  UNL775      0.1146
   3101 N          23.1826    9.4168   10.7014 N.3   776  UNL776     -0.3437
   3102 H          22.7409    8.6711   10.1655 H     776  UNL776      0.1146
   3103 H          23.9082    8.9694   11.2598 H     776  UNL776      0.1146
   3104 H          23.6701    9.9998   10.0226 H     776  UNL776      0.1146
   3105 N          23.2031    9.5832   12.8987 N.3   777  UNL777     -0.3437
   3106 H          22.7614    8.8375   12.3627 H     777  UNL777      0.1146
   3107 H          23.9287    9.1358   13.4571 H     777  UNL777      0.1146
   3108 H          23.6906   10.1662   12.2198 H     777  UNL777      0.1146
   3109 N          23.3785    9.4982   15.1547 N.3   778  UNL778     -0.3437
   3110 H          22.9368    8.9469   14.4203 H     778  UNL778      0.1146
   3111 H          24.1041    8.9043   15.5538 H     778  UNL778      0.1146
   3112 H          23.8660   10.2575   14.6812 H     778  UNL778      0.1146
   3113 N          23.1157    9.7413   17.3170 N.3   779  UNL779     -0.3437
   3114 H          22.6740    8.9957   16.7810 H     779  UNL779      0.1146
   3115 H          23.8413    9.2940   17.8754 H     779  UNL779      0.1146
   3116 H          23.6032   10.3243   16.6381 H     779  UNL779      0.1146
   3117 N          23.2528    9.9957   19.9062 N.3   780  UNL780     -0.3437
   3118 H          22.8111    9.2500   19.3702 H     780  UNL780      0.1146
   3119 H          23.9784    9.5483   20.4646 H     780  UNL780      0.1146
   3120 H          23.7403   10.5787   19.2274 H     780  UNL780      0.1146
   3121 N          21.2188    9.2864   21.1061 N.3   781  UNL781     -0.3437
   3122 H          20.7771    9.5770   21.9772 H     781  UNL781      0.1146
   3123 H          21.9444    9.9760   20.9154 H     781  UNL781      0.1146
   3124 H          21.7063    8.4163   21.3150 H     781  UNL781      0.1146
   3125 N          23.1394   12.3784   -1.0078 N.3   782  UNL782     -0.3437
   3126 H          24.1017   12.6690   -1.1752 H     782  UNL782      0.1146
   3127 H          22.5524   13.0680   -1.4750 H     782  UNL782      0.1146
   3128 H          23.0150   11.5083   -1.5234 H     782  UNL782      0.1146
   3129 N          22.5275   12.3776    1.9986 N.3   783  UNL783     -0.3437
   3130 H          22.0858   12.6682    2.8697 H     783  UNL783      0.1146
   3131 H          23.2531   13.0672    1.8079 H     783  UNL783      0.1146
   3132 H          23.0150   11.5075    2.2075 H     783  UNL783      0.1146
   3133 N          23.1394   12.3784    4.6475 N.3   784  UNL784     -0.3437
   3134 H          24.1017   12.6690    4.4800 H     784  UNL784      0.1146
   3135 H          22.5524   13.0680    4.1803 H     784  UNL784      0.1146
   3136 H          23.0150   11.5083    4.1319 H     784  UNL784      0.1146
   3137 N          22.2702   11.2849    6.6567 N.3   785  UNL785     -0.3437
   3138 H          21.8285   11.5755    7.5278 H     785  UNL785      0.1146
   3139 H          22.9958   11.9745    6.4660 H     785  UNL785      0.1146
   3140 H          22.7577   10.4148    6.8656 H     785  UNL785      0.1146
   3141 N          23.3774   11.3550    8.3922 N.3   786  UNL786     -0.3437
   3142 H          22.9357   11.6456    9.2633 H     786  UNL786      0.1146
   3143 H          24.1030   12.0446    8.2015 H     786  UNL786      0.1146
   3144 H          23.8649   10.4849    8.6011 H     786  UNL786      0.1146
   3145 N          23.9084   12.8986   10.6274 N.3   787  UNL787     -0.3437
   3146 H          24.1029   11.9021   10.7136 H     787  UNL787      0.1146
   3147 H          23.7326   13.0658    9.6376 H     787  UNL787      0.1146
   3148 H          23.0193   13.0533   11.1006 H     787  UNL787      0.1146
   3149 N          23.1477   12.3066   13.0070 N.3   788  UNL788     -0.3437
   3150 H          22.7060   11.7553   12.2726 H     788  UNL788      0.1146
   3151 H          23.8733   11.7128   13.4061 H     788  UNL788      0.1146
   3152 H          23.6352   13.0659   12.5335 H     788  UNL788      0.1146
   3153 N          22.6411   11.2221   14.9860 N.3   789  UNL789     -0.3437
   3154 H          22.1273   10.6498   14.3176 H     789  UNL789      0.1146
   3155 H          22.4467   12.1903   14.7347 H     789  UNL789      0.1146
   3156 H          22.1927   11.0707   15.8885 H     789  UNL789      0.1146
   3157 N          23.3783   12.1685   17.0506 N.3   790  UNL790     -0.3437
   3158 H          22.9366   12.6925   16.2965 H     790  UNL790      0.1146
   3159 H          24.1039   11.6031   16.6123 H     790  UNL790      0.1146
   3160 H          23.8658   12.8566   17.6227 H     790  UNL790      0.1146
   3161 N          22.9377   12.3784   19.8903 N.3   791  UNL791     -0.3437
   3162 H          22.5041   12.6690   19.0151 H     791  UNL791      0.1146
   3163 H          22.6562   13.0680   20.5857 H     791  UNL791      0.1146
   3164 H          22.4786   11.5083   20.1558 H     791  UNL791      0.1146
   3165 N          23.7570   11.2791   22.3317 N.3   792  UNL792     -0.3437
   3166 H          23.1761   11.5697   21.5465 H     792  UNL792      0.1146
   3167 H          23.6023   11.9687   23.0658 H     792  UNL792      0.1146
   3168 H          23.3518   10.4090   22.6739 H     792  UNL792      0.1146
@<TRIPOS>BOND
     1     1     2    1
     2     1     3    1
     3     1     4    1
     4     5     6    1
     5     5     7    1
     6     5     8    1
     7     9    10    1
     8     9    11    1
     9     9    12    1
    10    13    14    1
    11    13    15    1
    12    13    16    1
    13    17    18    1
    14    17    19    1
    15    17    20    1
    16    21    22    1
    17    21    23    1
    18    21    24    1
    19    25    26    1
    20    25    27    1
    21    25    28    1
    22    29    30    1
    23    29    31    1
    24    29    32    1
    25    33    34    1
    26    33    35    1
    27    33    36    1
    28    37    38    1
    29    37    39    1
    30    37    40    1
    31    41    42    1
    32    41    43    1
    33    41    44    1
    34    45    46    1
    35    45    47    1
    36    45    48    1
    37    49    50    1
    38    49    51    1
    39    49    52    1
    40    53    54    1
    41    53    55    1
    42    53    56    1
    43    57    58    1
    44    57    59    1
    45    57    60    1
    46    61    62    1
    47    61    63    1
    48    61    64    1
    49    65    66    1
    50    65    67    1
    51    65    68    1
    52    69    70    1
    53    69    71    1
    54    69    72    1
    55    73    74    1
    56    73    75    1
    57    73    76    1
    58    77    78    1
    59    77    79    1
    60    77    80    1
    61    81    82    1
    62    81    83    1
    63    81    84    1
    64    85    86    1
    65    85    87    1
    66    85    88    1
    67    89    90    1
    68    89    91    1
    69    89    92    1
    70    93    94    1
    71    93    95    1
    72    93    96    1
    73    97    98    1
    74    97    99    1
    75    97   100    1
    76   101   102    1
    77   101   103    1
    78   101   104    1
    79   105   106    1
    80   105   107    1
    81   105   108    1
    82   109   110    1
    83   109   111    1
    84   109   112    1
    85   113   114    1
    86   113   115    1
    87   113   116    1
    88   117   118    1
    89   117   119    1
    90   117   120    1
    91   121   122    1
    92   121   123    1
    93   121   124    1
    94   125   126    1
    95   125   127    1
    96   125   128    1
    97   129   130    1
    98   129   131    1
    99   129   132    1
   100   133   134    1
   101   133   135    1
   102   133   136    1
   103   137   138    1
   104   137   139    1
   105   137   140    1
   106   141   142    1
   107   141   143    1
   108   141   144    1
   109   145   146    1
   110   145   147    1
   111   145   148    1
   112   149   150    1
   113   149   151    1
   114   149   152    1
   115   153   154    1
   116   153   155    1
   117   153   156    1
   118   157   158    1
   119   157   159    1
   120   157   160    1
   121   161   162    1
   122   161   163    1
   123   161   164    1
   124   165   166    1
   125   165   167    1
   126   165   168    1
   127   169   170    1
   128   169   171    1
   129   169   172    1
   130   173   174    1
   131   173   175    1
   132   173   176    1
   133   177   178    1
   134   177   179    1
   135   177   180    1
   136   181   182    1
   137   181   183    1
   138   181   184    1
   139   185   186    1
   140   185   187    1
   141   185   188    1
   142   189   190    1
   143   189   191    1
   144   189   192    1
   145   193   194    1
   146   193   195    1
   147   193   196    1
   148   197   198    1
   149   197   199    1
   150   197   200    1
   151   201   202    1
   152   201   203    1
   153   201   204    1
   154   205   206    1
   155   205   207    1
   156   205   208    1
   157   209   210    1
   158   209   211    1
   159   209   212    1
   160   213   214    1
   161   213   215    1
   162   213   216    1
   163   217   218    1
   164   217   219    1
   165   217   220    1
   166   221   222    1
   167   221   223    1
   168   221   224    1
   169   225   226    1
   170   225   227    1
   171   225   228    1
   172   229   230    1
   173   229   231    1
   174   229   232    1
   175   233   234    1
   176   233   235    1
   177   233   236    1
   178   237   238    1
   179   237   239    1
   180   237   240    1
   181   241   242    1
   182   241   243    1
   183   241   244    1
   184   245   246    1
   185   245   247    1
   186   245   248    1
   187   249   250    1
   188   249   251    1
   189   249   252    1
   190   253   254    1
   191   253   255    1
   192   253   256    1
   193   257   258    1
   194   257   259    1
   195   257   260    1
   196   261   262    1
   197   261   263    1
   198   261   264    1
   199   265   266    1
   200   265   267    1
   201   265   268    1
   202   269   270    1
   203   269   271    1
   204   269   272    1
   205   273   274    1
   206   273   275    1
   207   273   276    1
   208   277   278    1
   209   277   279    1
   210   277   280    1
   211   281   282    1
   212   281   283    1
   213   281   284    1
   214   285   286    1
   215   285   287    1
   216   285   288    1
   217   289   290    1
   218   289   291    1
   219   289   292    1
   220   293   294    1
   221   293   295    1
   222   293   296    1
   223   297   298    1
   224   297   299    1
   225   297   300    1
   226   301   302    1
   227   301   303    1
   228   301   304    1
   229   305   306    1
   230   305   307    1
   231   305   308    1
   232   309   310    1
   233   309   311    1
   234   309   312    1
   235   313   314    1
   236   313   315    1
   237   313   316    1
   238   317   318    1
   239   317   319    1
   240   317   320    1
   241   321   322    1
   242   321   323    1
   243   321   324    1
   244   325   326    1
   245   325   327    1
   246   325   328    1
   247   329   330    1
   248   329   331    1
   249   329   332    1
   250   333   334    1
   251   333   335    1
   252   333   336    1
   253   337   338    1
   254   337   339    1
   255   337   340    1
   256   341   342    1
   257   341   343    1
   258   341   344    1
   259   345   346    1
   260   345   347    1
   261   345   348    1
   262   349   350    1
   263   349   351    1
   264   349   352    1
   265   353   354    1
   266   353   355    1
   267   353   356    1
   268   357   358    1
   269   357   359    1
   270   357   360    1
   271   361   362    1
   272   361   363    1
   273   361   364    1
   274   365   366    1
   275   365   367    1
   276   365   368    1
   277   369   370    1
   278   369   371    1
   279   369   372    1
   280   373   374    1
   281   373   375    1
   282   373   376    1
   283   377   378    1
   284   377   379    1
   285   377   380    1
   286   381   382    1
   287   381   383    1
   288   381   384    1
   289   385   386    1
   290   385   387    1
   291   385   388    1
   292   389   390    1
   293   389   391    1
   294   389   392    1
   295   393   394    1
   296   393   395    1
   297   393   396    1
   298   397   398    1
   299   397   399    1
   300   397   400    1
   301   401   402    1
   302   401   403    1
   303   401   404    1
   304   405   406    1
   305   405   407    1
   306   405   408    1
   307   409   410    1
   308   409   411    1
   309   409   412    1
   310   413   414    1
   311   413   415    1
   312   413   416    1
   313   417   418    1
   314   417   419    1
   315   417   420    1
   316   421   422    1
   317   421   423    1
   318   421   424    1
   319   425   426    1
   320   425   427    1
   321   425   428    1
   322   429   430    1
   323   429   431    1
   324   429   432    1
   325   433   434    1
   326   433   435    1
   327   433   436    1
   328   437   438    1
   329   437   439    1
   330   437   440    1
   331   441   442    1
   332   441   443    1
   333   441   444    1
   334   445   446    1
   335   445   447    1
   336   445   448    1
   337   449   450    1
   338   449   451    1
   339   449   452    1
   340   453   454    1
   341   453   455    1
   342   453   456    1
   343   457   458    1
   344   457   459    1
   345   457   460    1
   346   461   462    1
   347   461   463    1
   348   461   464    1
   349   465   466    1
   350   465   467    1
   351   465   468    1
   352   469   470    1
   353   469   471    1
   354   469   472    1
   355   473   474    1
   356   473   475    1
   357   473   476    1
   358   477   478    1
   359   477   479    1
   360   477   480    1
   361   481   482    1
   362   481   483    1
   363   481   484    1
   364   485   486    1
   365   485   487    1
   366   485   488    1
   367   489   490    1
   368   489   491    1
   369   489   492    1
   370   493   494    1
   371   493   495    1
   372   493   496    1
   373   497   498    1
   374   497   499    1
   375   497   500    1
   376   501   502    1
   377   501   503    1
   378   501   504    1
   379   505   506    1
   380   505   507    1
   381   505   508    1
   382   509   510    1
   383   509   511    1
   384   509   512    1
   385   513   514    1
   386   513   515    1
   387   513   516    1
   388   517   518    1
   389   517   519    1
   390   517   520    1
   391   521   522    1
   392   521   523    1
   393   521   524    1
   394   525   526    1
   395   525   527    1
   396   525   528    1
   397   529   530    1
   398   529   531    1
   399   529   532    1
   400   533   534    1
   401   533   535    1
   402   533   536    1
   403   537   538    1
   404   537   539    1
   405   537   540    1
   406   541   542    1
   407   541   543    1
   408   541   544    1
   409   545   546    1
   410   545   547    1
   411   545   548    1
   412   549   550    1
   413   549   551    1
   414   549   552    1
   415   553   554    1
   416   553   555    1
   417   553   556    1
   418   557   558    1
   419   557   559    1
   420   557   560    1
   421   561   562    1
   422   561   563    1
   423   561   564    1
   424   565   566    1
   425   565   567    1
   426   565   568    1
   427   569   570    1
   428   569   571    1
   429   569   572    1
   430   573   574    1
   431   573   575    1
   432   573   576    1
   433   577   578    1
   434   577   579    1
   435   577   580    1
   436   581   582    1
   437   581   583    1
   438   581   584    1
   439   585   586    1
   440   585   587    1
   441   585   588    1
   442   589   590    1
   443   589   591    1
   444   589   592    1
   445   593   594    1
   446   593   595    1
   447   593   596    1
   448   597   598    1
   449   597   599    1
   450   597   600    1
   451   601   602    1
   452   601   603    1
   453   601   604    1
   454   605   606    1
   455   605   607    1
   456   605   608    1
   457   609   610    1
   458   609   611    1
   459   609   612    1
   460   613   614    1
   461   613   615    1
   462   613   616    1
   463   617   618    1
   464   617   619    1
   465   617   620    1
   466   621   622    1
   467   621   623    1
   468   621   624    1
   469   625   626    1
   470   625   627    1
   471   625   628    1
   472   629   630    1
   473   629   631    1
   474   629   632    1
   475   633   634    1
   476   633   635    1
   477   633   636    1
   478   637   638    1
   479   637   639    1
   480   637   640    1
   481   641   642    1
   482   641   643    1
   483   641   644    1
   484   645   646    1
   485   645   647    1
   486   645   648    1
   487   649   650    1
   488   649   651    1
   489   649   652    1
   490   653   654    1
   491   653   655    1
   492   653   656    1
   493   657   658    1
   494   657   659    1
   495   657   660    1
   496   661   662    1
   497   661   663    1
   498   661   664    1
   499   665   666    1
   500   665   667    1
   501   665   668    1
   502   669   670    1
   503   669   671    1
   504   669   672    1
   505   673   674    1
   506   673   675    1
   507   673   676    1
   508   677   678    1
   509   677   679    1
   510   677   680    1
   511   681   682    1
   512   681   683    1
   513   681   684    1
   514   685   686    1
   515   685   687    1
   516   685   688    1
   517   689   690    1
   518   689   691    1
   519   689   692    1
   520   693   694    1
   521   693   695    1
   522   693   696    1
   523   697   698    1
   524   697   699    1
   525   697   700    1
   526   701   702    1
   527   701   703    1
   528   701   704    1
   529   705   706    1
   530   705   707    1
   531   705   708    1
   532   709   710    1
   533   709   711    1
   534   709   712    1
   535   713   714    1
   536   713   715    1
   537   713   716    1
   538   717   718    1
   539   717   719    1
   540   717   720    1
   541   721   722    1
   542   721   723    1
   543   721   724    1
   544   725   726    1
   545   725   727    1
   546   725   728    1
   547   729   730    1
   548   729   731    1
   549   729   732    1
   550   733   734    1
   551   733   735    1
   552   733   736    1
   553   737   738    1
   554   737   739    1
   555   737   740    1
   556   741   742    1
   557   741   743    1
   558   741   744    1
   559   745   746    1
   560   745   747    1
   561   745   748    1
   562   749   750    1
   563   749   751    1
   564   749   752    1
   565   753   754    1
   566   753   755    1
   567   753   756    1
   568   757   758    1
   569   757   759    1
   570   757   760    1
   571   761   762    1
   572   761   763    1
   573   761   764    1
   574   765   766    1
   575   765   767    1
   576   765   768    1
   577   769   770    1
   578   769   771    1
   579   769   772    1
   580   773   774    1
   581   773   775    1
   582   773   776    1
   583   777   778    1
   584   777   779    1
   585   777   780    1
   586   781   782    1
   587   781   783    1
   588   781   784    1
   589   785   786    1
   590   785   787    1
   591   785   788    1
   592   789   790    1
   593   789   791    1
   594   789   792    1
   595   793   794    1
   596   793   795    1
   597   793   796    1
   598   797   798    1
   599   797   799    1
   600   797   800    1
   601   801   802    1
   602   801   803    1
   603   801   804    1
   604   805   806    1
   605   805   807    1
   606   805   808    1
   607   809   810    1
   608   809   811    1
   609   809   812    1
   610   813   814    1
   611   813   815    1
   612   813   816    1
   613   817   818    1
   614   817   819    1
   615   817   820    1
   616   821   822    1
   617   821   823    1
   618   821   824    1
   619   825   826    1
   620   825   827    1
   621   825   828    1
   622   829   830    1
   623   829   831    1
   624   829   832    1
   625   833   834    1
   626   833   835    1
   627   833   836    1
   628   837   838    1
   629   837   839    1
   630   837   840    1
   631   841   842    1
   632   841   843    1
   633   841   844    1
   634   845   846    1
   635   845   847    1
   636   845   848    1
   637   849   850    1
   638   849   851    1
   639   849   852    1
   640   853   854    1
   641   853   855    1
   642   853   856    1
   643   857   858    1
   644   857   859    1
   645   857   860    1
   646   861   862    1
   647   861   863    1
   648   861   864    1
   649   865   866    1
   650   865   867    1
   651   865   868    1
   652   869   870    1
   653   869   871    1
   654   869   872    1
   655   873   874    1
   656   873   875    1
   657   873   876    1
   658   877   878    1
   659   877   879    1
   660   877   880    1
   661   881   882    1
   662   881   883    1
   663   881   884    1
   664   885   886    1
   665   885   887    1
   666   885   888    1
   667   889   890    1
   668   889   891    1
   669   889   892    1
   670   893   894    1
   671   893   895    1
   672   893   896    1
   673   897   898    1
   674   897   899    1
   675   897   900    1
   676   901   902    1
   677   901   903    1
   678   901   904    1
   679   905   906    1
   680   905   907    1
   681   905   908    1
   682   909   910    1
   683   909   911    1
   684   909   912    1
   685   913   914    1
   686   913   915    1
   687   913   916    1
   688   917   918    1
   689   917   919    1
   690   917   920    1
   691   921   922    1
   692   921   923    1
   693   921   924    1
   694   925   926    1
   695   925   927    1
   696   925   928    1
   697   929   930    1
   698   929   931    1
   699   929   932    1
   700   933   934    1
   701   933   935    1
   702   933   936    1
   703   937   938    1
   704   937   939    1
   705   937   940    1
   706   941   942    1
   707   941   943    1
   708   941   944    1
   709   945   946    1
   710   945   947    1
   711   945   948    1
   712   949   950    1
   713   949   951    1
   714   949   952    1
   715   953   954    1
   716   953   955    1
   717   953   956    1
   718   957   958    1
   719   957   959    1
   720   957   960    1
   721   961   962    1
   722   961   963    1
   723   961   964    1
   724   965   966    1
   725   965   967    1
   726   965   968    1
   727   969   970    1
   728   969   971    1
   729   969   972    1
   730   973   974    1
   731   973   975    1
   732   973   976    1
   733   977   978    1
   734   977   979    1
   735   977   980    1
   736   981   982    1
   737   981   983    1
   738   981   984    1
   739   985   986    1
   740   985   987    1
   741   985   988    1
   742   989   990    1
   743   989   991    1
   744   989   992    1
   745   993   994    1
   746   993   995    1
   747   993   996    1
   748   997   998    1
   749   997   999    1
   750   997  1000    1
   751  1001  1002    1
   752  1001  1003    1
   753  1001  1004    1
   754  1005  1006    1
   755  1005  1007    1
   756  1005  1008    1
   757  1009  1010    1
   758  1009  1011    1
   759  1009  1012    1
   760  1013  1014    1
   761  1013  1015    1
   762  1013  1016    1
   763  1017  1018    1
   764  1017  1019    1
   765  1017  1020    1
   766  1021  1022    1
   767  1021  1023    1
   768  1021  1024    1
   769  1025  1026    1
   770  1025  1027    1
   771  1025  1028    1
   772  1029  1030    1
   773  1029  1031    1
   774  1029  1032    1
   775  1033  1034    1
   776  1033  1035    1
   777  1033  1036    1
   778  1037  1038    1
   779  1037  1039    1
   780  1037  1040    1
   781  1041  1042    1
   782  1041  1043    1
   783  1041  1044    1
   784  1045  1046    1
   785  1045  1047    1
   786  1045  1048    1
   787  1049  1050    1
   788  1049  1051    1
   789  1049  1052    1
   790  1053  1054    1
   791  1053  1055    1
   792  1053  1056    1
   793  1057  1058    1
   794  1057  1059    1
   795  1057  1060    1
   796  1061  1062    1
   797  1061  1063    1
   798  1061  1064    1
   799  1065  1066    1
   800  1065  1067    1
   801  1065  1068    1
   802  1069  1070    1
   803  1069  1071    1
   804  1069  1072    1
   805  1073  1074    1
   806  1073  1075    1
   807  1073  1076    1
   808  1077  1078    1
   809  1077  1079    1
   810  1077  1080    1
   811  1081  1082    1
   812  1081  1083    1
   813  1081  1084    1
   814  1085  1086    1
   815  1085  1087    1
   816  1085  1088    1
   817  1089  1090    1
   818  1089  1091    1
   819  1089  1092    1
   820  1093  1094    1
   821  1093  1095    1
   822  1093  1096    1
   823  1097  1098    1
   824  1097  1099    1
   825  1097  1100    1
   826  1101  1102    1
   827  1101  1103    1
   828  1101  1104    1
   829  1105  1106    1
   830  1105  1107    1
   831  1105  1108    1
   832  1109  1110    1
   833  1109  1111    1
   834  1109  1112    1
   835  1113  1114    1
   836  1113  1115    1
   837  1113  1116    1
   838  1117  1118    1
   839  1117  1119    1
   840  1117  1120    1
   841  1121  1122    1
   842  1121  1123    1
   843  1121  1124    1
   844  1125  1126    1
   845  1125  1127    1
   846  1125  1128    1
   847  1129  1130    1
   848  1129  1131    1
   849  1129  1132    1
   850  1133  1134    1
   851  1133  1135    1
   852  1133  1136    1
   853  1137  1138    1
   854  1137  1139    1
   855  1137  1140    1
   856  1141  1142    1
   857  1141  1143    1
   858  1141  1144    1
   859  1145  1146    1
   860  1145  1147    1
   861  1145  1148    1
   862  1149  1150    1
   863  1149  1151    1
   864  1149  1152    1
   865  1153  1154    1
   866  1153  1155    1
   867  1153  1156    1
   868  1157  1158    1
   869  1157  1159    1
   870  1157  1160    1
   871  1161  1162    1
   872  1161  1163    1
   873  1161  1164    1
   874  1165  1166    1
   875  1165  1167    1
   876  1165  1168    1
   877  1169  1170    1
   878  1169  1171    1
   879  1169  1172    1
   880  1173  1174    1
   881  1173  1175    1
   882  1173  1176    1
   883  1177  1178    1
   884  1177  1179    1
   885  1177  1180    1
   886  1181  1182    1
   887  1181  1183    1
   888  1181  1184    1
   889  1185  1186    1
   890  1185  1187    1
   891  1185  1188    1
   892  1189  1190    1
   893  1189  1191    1
   894  1189  1192    1
   895  1193  1194    1
   896  1193  1195    1
   897  1193  1196    1
   898  1197  1198    1
   899  1197  1199    1
   900  1197  1200    1
   901  1201  1202    1
   902  1201  1203    1
   903  1201  1204    1
   904  1205  1206    1
   905  1205  1207    1
   906  1205  1208    1
   907  1209  1210    1
   908  1209  1211    1
   909  1209  1212    1
   910  1213  1214    1
   911  1213  1215    1
   912  1213  1216    1
   913  1217  1218    1
   914  1217  1219    1
   915  1217  1220    1
   916  1221  1222    1
   917  1221  1223    1
   918  1221  1224    1
   919  1225  1226    1
   920  1225  1227    1
   921  1225  1228    1
   922  1229  1230    1
   923  1229  1231    1
   924  1229  1232    1
   925  1233  1234    1
   926  1233  1235    1
   927  1233  1236    1
   928  1237  1238    1
   929  1237  1239    1
   930  1237  1240    1
   931  1241  1242    1
   932  1241  1243    1
   933  1241  1244    1
   934  1245  1246    1
   935  1245  1247    1
   936  1245  1248    1
   937  1249  1250    1
   938  1249  1251    1
   939  1249  1252    1
   940  1253  1254    1
   941  1253  1255    1
   942  1253  1256    1
   943  1257  1258    1
   944  1257  1259    1
   945  1257  1260    1
   946  1261  1262    1
   947  1261  1263    1
   948  1261  1264    1
   949  1265  1266    1
   950  1265  1267    1
   951  1265  1268    1
   952  1269  1270    1
   953  1269  1271    1
   954  1269  1272    1
   955  1273  1274    1
   956  1273  1275    1
   957  1273  1276    1
   958  1277  1278    1
   959  1277  1279    1
   960  1277  1280    1
   961  1281  1282    1
   962  1281  1283    1
   963  1281  1284    1
   964  1285  1286    1
   965  1285  1287    1
   966  1285  1288    1
   967  1289  1290    1
   968  1289  1291    1
   969  1289  1292    1
   970  1293  1294    1
   971  1293  1295    1
   972  1293  1296    1
   973  1297  1298    1
   974  1297  1299    1
   975  1297  1300    1
   976  1301  1302    1
   977  1301  1303    1
   978  1301  1304    1
   979  1305  1306    1
   980  1305  1307    1
   981  1305  1308    1
   982  1309  1310    1
   983  1309  1311    1
   984  1309  1312    1
   985  1313  1314    1
   986  1313  1315    1
   987  1313  1316    1
   988  1317  1318    1
   989  1317  1319    1
   990  1317  1320    1
   991  1321  1322    1
   992  1321  1323    1
   993  1321  1324    1
   994  1325  1326    1
   995  1325  1327    1
   996  1325  1328    1
   997  1329  1330    1
   998  1329  1331    1
   999  1329  1332    1
  1000  1333  1334    1
  1001  1333  1335    1
  1002  1333  1336    1
  1003  1337  1338    1
  1004  1337  1339    1
  1005  1337  1340    1
  1006  1341  1342    1
  1007  1341  1343    1
  1008  1341  1344    1
  1009  1345  1346    1
  1010  1345  1347    1
  1011  1345  1348    1
  1012  1349  1350    1
  1013  1349  1351    1
  1014  1349  1352    1
  1015  1353  1354    1
  1016  1353  1355    1
  1017  1353  1356    1
  1018  1357  1358    1
  1019  1357  1359    1
  1020  1357  1360    1
  1021  1361  1362    1
  1022  1361  1363    1
  1023  1361  1364    1
  1024  1365  1366    1
  1025  1365  1367    1
  1026  1365  1368    1
  1027  1369  1370    1
  1028  1369  1371    1
  1029  1369  1372    1
  1030  1373  1374    1
  1031  1373  1375    1
  1032  1373  1376    1
  1033  1377  1378    1
  1034  1377  1379    1
  1035  1377  1380    1
  1036  1381  1382    1
  1037  1381  1383    1
  1038  1381  1384    1
  1039  1385  1386    1
  1040  1385  1387    1
  1041  1385  1388    1
  1042  1389  1390    1
  1043  1389  1391    1
  1044  1389  1392    1
  1045  1393  1394    1
  1046  1393  1395    1
  1047  1393  1396    1
  1048  1397  1398    1
  1049  1397  1399    1
  1050  1397  1400    1
  1051  1401  1402    1
  1052  1401  1403    1
  1053  1401  1404    1
  1054  1405  1406    1
  1055  1405  1407    1
  1056  1405  1408    1
  1057  1409  1410    1
  1058  1409  1411    1
  1059  1409  1412    1
  1060  1413  1414    1
  1061  1413  1415    1
  1062  1413  1416    1
  1063  1417  1418    1
  1064  1417  1419    1
  1065  1417  1420    1
  1066  1421  1422    1
  1067  1421  1423    1
  1068  1421  1424    1
  1069  1425  1426    1
  1070  1425  1427    1
  1071  1425  1428    1
  1072  1429  1430    1
  1073  1429  1431    1
  1074  1429  1432    1
  1075  1433  1434    1
  1076  1433  1435    1
  1077  1433  1436    1
  1078  1437  1438    1
  1079  1437  1439    1
  1080  1437  1440    1
  1081  1441  1442    1
  1082  1441  1443    1
  1083  1441  1444    1
  1084  1445  1446    1
  1085  1445  1447    1
  1086  1445  1448    1
  1087  1449  1450    1
  1088  1449  1451    1
  1089  1449  1452    1
  1090  1453  1454    1
  1091  1453  1455    1
  1092  1453  1456    1
  1093  1457  1458    1
  1094  1457  1459    1
  1095  1457  1460    1
  1096  1461  1462    1
  1097  1461  1463    1
  1098  1461  1464    1
  1099  1465  1466    1
  1100  1465  1467    1
  1101  1465  1468    1
  1102  1469  1470    1
  1103  1469  1471    1
  1104  1469  1472    1
  1105  1473  1474    1
  1106  1473  1475    1
  1107  1473  1476    1
  1108  1477  1478    1
  1109  1477  1479    1
  1110  1477  1480    1
  1111  1481  1482    1
  1112  1481  1483    1
  1113  1481  1484    1
  1114  1485  1486    1
  1115  1485  1487    1
  1116  1485  1488    1
  1117  1489  1490    1
  1118  1489  1491    1
  1119  1489  1492    1
  1120  1493  1494    1
  1121  1493  1495    1
  1122  1493  1496    1
  1123  1497  1498    1
  1124  1497  1499    1
  1125  1497  1500    1
  1126  1501  1502    1
  1127  1501  1503    1
  1128  1501  1504    1
  1129  1505  1506    1
  1130  1505  1507    1
  1131  1505  1508    1
  1132  1509  1510    1
  1133  1509  1511    1
  1134  1509  1512    1
  1135  1513  1514    1
  1136  1513  1515    1
  1137  1513  1516    1
  1138  1517  1518    1
  1139  1517  1519    1
  1140  1517  1520    1
  1141  1521  1522    1
  1142  1521  1523    1
  1143  1521  1524    1
  1144  1525  1526    1
  1145  1525  1527    1
  1146  1525  1528    1
  1147  1529  1530    1
  1148  1529  1531    1
  1149  1529  1532    1
  1150  1533  1534    1
  1151  1533  1535    1
  1152  1533  1536    1
  1153  1537  1538    1
  1154  1537  1539    1
  1155  1537  1540    1
  1156  1541  1542    1
  1157  1541  1543    1
  1158  1541  1544    1
  1159  1545  1546    1
  1160  1545  1547    1
  1161  1545  1548    1
  1162  1549  1550    1
  1163  1549  1551    1
  1164  1549  1552    1
  1165  1553  1554    1
  1166  1553  1555    1
  1167  1553  1556    1
  1168  1557  1558    1
  1169  1557  1559    1
  1170  1557  1560    1
  1171  1561  1562    1
  1172  1561  1563    1
  1173  1561  1564    1
  1174  1565  1566    1
  1175  1565  1567    1
  1176  1565  1568    1
  1177  1569  1570    1
  1178  1569  1571    1
  1179  1569  1572    1
  1180  1573  1574    1
  1181  1573  1575    1
  1182  1573  1576    1
  1183  1577  1578    1
  1184  1577  1579    1
  1185  1577  1580    1
  1186  1581  1582    1
  1187  1581  1583    1
  1188  1581  1584    1
  1189  1585  1586    1
  1190  1585  1587    1
  1191  1585  1588    1
  1192  1589  1590    1
  1193  1589  1591    1
  1194  1589  1592    1
  1195  1593  1594    1
  1196  1593  1595    1
  1197  1593  1596    1
  1198  1597  1598    1
  1199  1597  1599    1
  1200  1597  1600    1
  1201  1601  1602    1
  1202  1601  1603    1
  1203  1601  1604    1
  1204  1605  1606    1
  1205  1605  1607    1
  1206  1605  1608    1
  1207  1609  1610    1
  1208  1609  1611    1
  1209  1609  1612    1
  1210  1613  1614    1
  1211  1613  1615    1
  1212  1613  1616    1
  1213  1617  1618    1
  1214  1617  1619    1
  1215  1617  1620    1
  1216  1621  1622    1
  1217  1621  1623    1
  1218  1621  1624    1
  1219  1625  1626    1
  1220  1625  1627    1
  1221  1625  1628    1
  1222  1629  1630    1
  1223  1629  1631    1
  1224  1629  1632    1
  1225  1633  1634    1
  1226  1633  1635    1
  1227  1633  1636    1
  1228  1637  1638    1
  1229  1637  1639    1
  1230  1637  1640    1
  1231  1641  1642    1
  1232  1641  1643    1
  1233  1641  1644    1
  1234  1645  1646    1
  1235  1645  1647    1
  1236  1645  1648    1
  1237  1649  1650    1
  1238  1649  1651    1
  1239  1649  1652    1
  1240  1653  1654    1
  1241  1653  1655    1
  1242  1653  1656    1
  1243  1657  1658    1
  1244  1657  1659    1
  1245  1657  1660    1
  1246  1661  1662    1
  1247  1661  1663    1
  1248  1661  1664    1
  1249  1665  1666    1
  1250  1665  1667    1
  1251  1665  1668    1
  1252  1669  1670    1
  1253  1669  1671    1
  1254  1669  1672    1
  1255  1673  1674    1
  1256  1673  1675    1
  1257  1673  1676    1
  1258  1677  1678    1
  1259  1677  1679    1
  1260  1677  1680    1
  1261  1681  1682    1
  1262  1681  1683    1
  1263  1681  1684    1
  1264  1685  1686    1
  1265  1685  1687    1
  1266  1685  1688    1
  1267  1689  1690    1
  1268  1689  1691    1
  1269  1689  1692    1
  1270  1693  1694    1
  1271  1693  1695    1
  1272  1693  1696    1
  1273  1697  1698    1
  1274  1697  1699    1
  1275  1697  1700    1
  1276  1701  1702    1
  1277  1701  1703    1
  1278  1701  1704    1
  1279  1705  1706    1
  1280  1705  1707    1
  1281  1705  1708    1
  1282  1709  1710    1
  1283  1709  1711    1
  1284  1709  1712    1
  1285  1713  1714    1
  1286  1713  1715    1
  1287  1713  1716    1
  1288  1717  1718    1
  1289  1717  1719    1
  1290  1717  1720    1
  1291  1721  1722    1
  1292  1721  1723    1
  1293  1721  1724    1
  1294  1725  1726    1
  1295  1725  1727    1
  1296  1725  1728    1
  1297  1729  1730    1
  1298  1729  1731    1
  1299  1729  1732    1
  1300  1733  1734    1
  1301  1733  1735    1
  1302  1733  1736    1
  1303  1737  1738    1
  1304  1737  1739    1
  1305  1737  1740    1
  1306  1741  1742    1
  1307  1741  1743    1
  1308  1741  1744    1
  1309  1745  1746    1
  1310  1745  1747    1
  1311  1745  1748    1
  1312  1749  1750    1
  1313  1749  1751    1
  1314  1749  1752    1
  1315  1753  1754    1
  1316  1753  1755    1
  1317  1753  1756    1
  1318  1757  1758    1
  1319  1757  1759    1
  1320  1757  1760    1
  1321  1761  1762    1
  1322  1761  1763    1
  1323  1761  1764    1
  1324  1765  1766    1
  1325  1765  1767    1
  1326  1765  1768    1
  1327  1769  1770    1
  1328  1769  1771    1
  1329  1769  1772    1
  1330  1773  1774    1
  1331  1773  1775    1
  1332  1773  1776    1
  1333  1777  1778    1
  1334  1777  1779    1
  1335  1777  1780    1
  1336  1781  1782    1
  1337  1781  1783    1
  1338  1781  1784    1
  1339  1785  1786    1
  1340  1785  1787    1
  1341  1785  1788    1
  1342  1789  1790    1
  1343  1789  1791    1
  1344  1789  1792    1
  1345  1793  1794    1
  1346  1793  1795    1
  1347  1793  1796    1
  1348  1797  1798    1
  1349  1797  1799    1
  1350  1797  1800    1
  1351  1801  1802    1
  1352  1801  1803    1
  1353  1801  1804    1
  1354  1805  1806    1
  1355  1805  1807    1
  1356  1805  1808    1
  1357  1809  1810    1
  1358  1809  1811    1
  1359  1809  1812    1
  1360  1813  1814    1
  1361  1813  1815    1
  1362  1813  1816    1
  1363  1817  1818    1
  1364  1817  1819    1
  1365  1817  1820    1
  1366  1821  1822    1
  1367  1821  1823    1
  1368  1821  1824    1
  1369  1825  1826    1
  1370  1825  1827    1
  1371  1825  1828    1
  1372  1829  1830    1
  1373  1829  1831    1
  1374  1829  1832    1
  1375  1833  1834    1
  1376  1833  1835    1
  1377  1833  1836    1
  1378  1837  1838    1
  1379  1837  1839    1
  1380  1837  1840    1
  1381  1841  1842    1
  1382  1841  1843    1
  1383  1841  1844    1
  1384  1845  1846    1
  1385  1845  1847    1
  1386  1845  1848    1
  1387  1849  1850    1
  1388  1849  1851    1
  1389  1849  1852    1
  1390  1853  1854    1
  1391  1853  1855    1
  1392  1853  1856    1
  1393  1857  1858    1
  1394  1857  1859    1
  1395  1857  1860    1
  1396  1861  1862    1
  1397  1861  1863    1
  1398  1861  1864    1
  1399  1865  1866    1
  1400  1865  1867    1
  1401  1865  1868    1
  1402  1869  1870    1
  1403  1869  1871    1
  1404  1869  1872    1
  1405  1873  1874    1
  1406  1873  1875    1
  1407  1873  1876    1
  1408  1877  1878    1
  1409  1877  1879    1
  1410  1877  1880    1
  1411  1881  1882    1
  1412  1881  1883    1
  1413  1881  1884    1
  1414  1885  1886    1
  1415  1885  1887    1
  1416  1885  1888    1
  1417  1889  1890    1
  1418  1889  1891    1
  1419  1889  1892    1
  1420  1893  1894    1
  1421  1893  1895    1
  1422  1893  1896    1
  1423  1897  1898    1
  1424  1897  1899    1
  1425  1897  1900    1
  1426  1901  1902    1
  1427  1901  1903    1
  1428  1901  1904    1
  1429  1905  1906    1
  1430  1905  1907    1
  1431  1905  1908    1
  1432  1909  1910    1
  1433  1909  1911    1
  1434  1909  1912    1
  1435  1913  1914    1
  1436  1913  1915    1
  1437  1913  1916    1
  1438  1917  1918    1
  1439  1917  1919    1
  1440  1917  1920    1
  1441  1921  1922    1
  1442  1921  1923    1
  1443  1921  1924    1
  1444  1925  1926    1
  1445  1925  1927    1
  1446  1925  1928    1
  1447  1929  1930    1
  1448  1929  1931    1
  1449  1929  1932    1
  1450  1933  1934    1
  1451  1933  1935    1
  1452  1933  1936    1
  1453  1937  1938    1
  1454  1937  1939    1
  1455  1937  1940    1
  1456  1941  1942    1
  1457  1941  1943    1
  1458  1941  1944    1
  1459  1945  1946    1
  1460  1945  1947    1
  1461  1945  1948    1
  1462  1949  1950    1
  1463  1949  1951    1
  1464  1949  1952    1
  1465  1953  1954    1
  1466  1953  1955    1
  1467  1953  1956    1
  1468  1957  1958    1
  1469  1957  1959    1
  1470  1957  1960    1
  1471  1961  1962    1
  1472  1961  1963    1
  1473  1961  1964    1
  1474  1965  1966    1
  1475  1965  1967    1
  1476  1965  1968    1
  1477  1969  1970    1
  1478  1969  1971    1
  1479  1969  1972    1
  1480  1973  1974    1
  1481  1973  1975    1
  1482  1973  1976    1
  1483  1977  1978    1
  1484  1977  1979    1
  1485  1977  1980    1
  1486  1981  1982    1
  1487  1981  1983    1
  1488  1981  1984    1
  1489  1985  1986    1
  1490  1985  1987    1
  1491  1985  1988    1
  1492  1989  1990    1
  1493  1989  1991    1
  1494  1989  1992    1
  1495  1993  1994    1
  1496  1993  1995    1
  1497  1993  1996    1
  1498  1997  1998    1
  1499  1997  1999    1
  1500  1997  2000    1
  1501  2001  2002    1
  1502  2001  2003    1
  1503  2001  2004    1
  1504  2005  2006    1
  1505  2005  2007    1
  1506  2005  2008    1
  1507  2009  2010    1
  1508  2009  2011    1
  1509  2009  2012    1
  1510  2013  2014    1
  1511  2013  2015    1
  1512  2013  2016    1
  1513  2017  2018    1
  1514  2017  2019    1
  1515  2017  2020    1
  1516  2021  2022    1
  1517  2021  2023    1
  1518  2021  2024    1
  1519  2025  2026    1
  1520  2025  2027    1
  1521  2025  2028    1
  1522  2029  2030    1
  1523  2029  2031    1
  1524  2029  2032    1
  1525  2033  2034    1
  1526  2033  2035    1
  1527  2033  2036    1
  1528  2037  2038    1
  1529  2037  2039    1
  1530  2037  2040    1
  1531  2041  2042    1
  1532  2041  2043    1
  1533  2041  2044    1
  1534  2045  2046    1
  1535  2045  2047    1
  1536  2045  2048    1
  1537  2049  2050    1
  1538  2049  2051    1
  1539  2049  2052    1
  1540  2053  2054    1
  1541  2053  2055    1
  1542  2053  2056    1
  1543  2057  2058    1
  1544  2057  2059    1
  1545  2057  2060    1
  1546  2061  2062    1
  1547  2061  2063    1
  1548  2061  2064    1
  1549  2065  2066    1
  1550  2065  2067    1
  1551  2065  2068    1
  1552  2069  2070    1
  1553  2069  2071    1
  1554  2069  2072    1
  1555  2073  2074    1
  1556  2073  2075    1
  1557  2073  2076    1
  1558  2077  2078    1
  1559  2077  2079    1
  1560  2077  2080    1
  1561  2081  2082    1
  1562  2081  2083    1
  1563  2081  2084    1
  1564  2085  2086    1
  1565  2085  2087    1
  1566  2085  2088    1
  1567  2089  2090    1
  1568  2089  2091    1
  1569  2089  2092    1
  1570  2093  2094    1
  1571  2093  2095    1
  1572  2093  2096    1
  1573  2097  2098    1
  1574  2097  2099    1
  1575  2097  2100    1
  1576  2101  2102    1
  1577  2101  2103    1
  1578  2101  2104    1
  1579  2105  2106    1
  1580  2105  2107    1
  1581  2105  2108    1
  1582  2109  2110    1
  1583  2109  2111    1
  1584  2109  2112    1
  1585  2113  2114    1
  1586  2113  2115    1
  1587  2113  2116    1
  1588  2117  2118    1
  1589  2117  2119    1
  1590  2117  2120    1
  1591  2121  2122    1
  1592  2121  2123    1
  1593  2121  2124    1
  1594  2125  2126    1
  1595  2125  2127    1
  1596  2125  2128    1
  1597  2129  2130    1
  1598  2129  2131    1
  1599  2129  2132    1
  1600  2133  2134    1
  1601  2133  2135    1
  1602  2133  2136    1
  1603  2137  2138    1
  1604  2137  2139    1
  1605  2137  2140    1
  1606  2141  2142    1
  1607  2141  2143    1
  1608  2141  2144    1
  1609  2145  2146    1
  1610  2145  2147    1
  1611  2145  2148    1
  1612  2149  2150    1
  1613  2149  2151    1
  1614  2149  2152    1
  1615  2153  2154    1
  1616  2153  2155    1
  1617  2153  2156    1
  1618  2157  2158    1
  1619  2157  2159    1
  1620  2157  2160    1
  1621  2161  2162    1
  1622  2161  2163    1
  1623  2161  2164    1
  1624  2165  2166    1
  1625  2165  2167    1
  1626  2165  2168    1
  1627  2169  2170    1
  1628  2169  2171    1
  1629  2169  2172    1
  1630  2173  2174    1
  1631  2173  2175    1
  1632  2173  2176    1
  1633  2177  2178    1
  1634  2177  2179    1
  1635  2177  2180    1
  1636  2181  2182    1
  1637  2181  2183    1
  1638  2181  2184    1
  1639  2185  2186    1
  1640  2185  2187    1
  1641  2185  2188    1
  1642  2189  2190    1
  1643  2189  2191    1
  1644  2189  2192    1
  1645  2193  2194    1
  1646  2193  2195    1
  1647  2193  2196    1
  1648  2197  2198    1
  1649  2197  2199    1
  1650  2197  2200    1
  1651  2201  2202    1
  1652  2201  2203    1
  1653  2201  2204    1
  1654  2205  2206    1
  1655  2205  2207    1
  1656  2205  2208    1
  1657  2209  2210    1
  1658  2209  2211    1
  1659  2209  2212    1
  1660  2213  2214    1
  1661  2213  2215    1
  1662  2213  2216    1
  1663  2217  2218    1
  1664  2217  2219    1
  1665  2217  2220    1
  1666  2221  2222    1
  1667  2221  2223    1
  1668  2221  2224    1
  1669  2225  2226    1
  1670  2225  2227    1
  1671  2225  2228    1
  1672  2229  2230    1
  1673  2229  2231    1
  1674  2229  2232    1
  1675  2233  2234    1
  1676  2233  2235    1
  1677  2233  2236    1
  1678  2237  2238    1
  1679  2237  2239    1
  1680  2237  2240    1
  1681  2241  2242    1
  1682  2241  2243    1
  1683  2241  2244    1
  1684  2245  2246    1
  1685  2245  2247    1
  1686  2245  2248    1
  1687  2249  2250    1
  1688  2249  2251    1
  1689  2249  2252    1
  1690  2253  2254    1
  1691  2253  2255    1
  1692  2253  2256    1
  1693  2257  2258    1
  1694  2257  2259    1
  1695  2257  2260    1
  1696  2261  2262    1
  1697  2261  2263    1
  1698  2261  2264    1
  1699  2265  2266    1
  1700  2265  2267    1
  1701  2265  2268    1
  1702  2269  2270    1
  1703  2269  2271    1
  1704  2269  2272    1
  1705  2273  2274    1
  1706  2273  2275    1
  1707  2273  2276    1
  1708  2277  2278    1
  1709  2277  2279    1
  1710  2277  2280    1
  1711  2281  2282    1
  1712  2281  2283    1
  1713  2281  2284    1
  1714  2285  2286    1
  1715  2285  2287    1
  1716  2285  2288    1
  1717  2289  2290    1
  1718  2289  2291    1
  1719  2289  2292    1
  1720  2293  2294    1
  1721  2293  2295    1
  1722  2293  2296    1
  1723  2297  2298    1
  1724  2297  2299    1
  1725  2297  2300    1
  1726  2301  2302    1
  1727  2301  2303    1
  1728  2301  2304    1
  1729  2305  2306    1
  1730  2305  2307    1
  1731  2305  2308    1
  1732  2309  2310    1
  1733  2309  2311    1
  1734  2309  2312    1
  1735  2313  2314    1
  1736  2313  2315    1
  1737  2313  2316    1
  1738  2317  2318    1
  1739  2317  2319    1
  1740  2317  2320    1
  1741  2321  2322    1
  1742  2321  2323    1
  1743  2321  2324    1
  1744  2325  2326    1
  1745  2325  2327    1
  1746  2325  2328    1
  1747  2329  2330    1
  1748  2329  2331    1
  1749  2329  2332    1
  1750  2333  2334    1
  1751  2333  2335    1
  1752  2333  2336    1
  1753  2337  2338    1
  1754  2337  2339    1
  1755  2337  2340    1
  1756  2341  2342    1
  1757  2341  2343    1
  1758  2341  2344    1
  1759  2345  2346    1
  1760  2345  2347    1
  1761  2345  2348    1
  1762  2349  2350    1
  1763  2349  2351    1
  1764  2349  2352    1
  1765  2353  2354    1
  1766  2353  2355    1
  1767  2353  2356    1
  1768  2357  2358    1
  1769  2357  2359    1
  1770  2357  2360    1
  1771  2361  2362    1
  1772  2361  2363    1
  1773  2361  2364    1
  1774  2365  2366    1
  1775  2365  2367    1
  1776  2365  2368    1
  1777  2369  2370    1
  1778  2369  2371    1
  1779  2369  2372    1
  1780  2373  2374    1
  1781  2373  2375    1
  1782  2373  2376    1
  1783  2377  2378    1
  1784  2377  2379    1
  1785  2377  2380    1
  1786  2381  2382    1
  1787  2381  2383    1
  1788  2381  2384    1
  1789  2385  2386    1
  1790  2385  2387    1
  1791  2385  2388    1
  1792  2389  2390    1
  1793  2389  2391    1
  1794  2389  2392    1
  1795  2393  2394    1
  1796  2393  2395    1
  1797  2393  2396    1
  1798  2397  2398    1
  1799  2397  2399    1
  1800  2397  2400    1
  1801  2401  2402    1
  1802  2401  2403    1
  1803  2401  2404    1
  1804  2405  2406    1
  1805  2405  2407    1
  1806  2405  2408    1
  1807  2409  2410    1
  1808  2409  2411    1
  1809  2409  2412    1
  1810  2413  2414    1
  1811  2413  2415    1
  1812  2413  2416    1
  1813  2417  2418    1
  1814  2417  2419    1
  1815  2417  2420    1
  1816  2421  2422    1
  1817  2421  2423    1
  1818  2421  2424    1
  1819  2425  2426    1
  1820  2425  2427    1
  1821  2425  2428    1
  1822  2429  2430    1
  1823  2429  2431    1
  1824  2429  2432    1
  1825  2433  2434    1
  1826  2433  2435    1
  1827  2433  2436    1
  1828  2437  2438    1
  1829  2437  2439    1
  1830  2437  2440    1
  1831  2441  2442    1
  1832  2441  2443    1
  1833  2441  2444    1
  1834  2445  2446    1
  1835  2445  2447    1
  1836  2445  2448    1
  1837  2449  2450    1
  1838  2449  2451    1
  1839  2449  2452    1
  1840  2453  2454    1
  1841  2453  2455    1
  1842  2453  2456    1
  1843  2457  2458    1
  1844  2457  2459    1
  1845  2457  2460    1
  1846  2461  2462    1
  1847  2461  2463    1
  1848  2461  2464    1
  1849  2465  2466    1
  1850  2465  2467    1
  1851  2465  2468    1
  1852  2469  2470    1
  1853  2469  2471    1
  1854  2469  2472    1
  1855  2473  2474    1
  1856  2473  2475    1
  1857  2473  2476    1
  1858  2477  2478    1
  1859  2477  2479    1
  1860  2477  2480    1
  1861  2481  2482    1
  1862  2481  2483    1
  1863  2481  2484    1
  1864  2485  2486    1
  1865  2485  2487    1
  1866  2485  2488    1
  1867  2489  2490    1
  1868  2489  2491    1
  1869  2489  2492    1
  1870  2493  2494    1
  1871  2493  2495    1
  1872  2493  2496    1
  1873  2497  2498    1
  1874  2497  2499    1
  1875  2497  2500    1
  1876  2501  2502    1
  1877  2501  2503    1
  1878  2501  2504    1
  1879  2505  2506    1
  1880  2505  2507    1
  1881  2505  2508    1
  1882  2509  2510    1
  1883  2509  2511    1
  1884  2509  2512    1
  1885  2513  2514    1
  1886  2513  2515    1
  1887  2513  2516    1
  1888  2517  2518    1
  1889  2517  2519    1
  1890  2517  2520    1
  1891  2521  2522    1
  1892  2521  2523    1
  1893  2521  2524    1
  1894  2525  2526    1
  1895  2525  2527    1
  1896  2525  2528    1
  1897  2529  2530    1
  1898  2529  2531    1
  1899  2529  2532    1
  1900  2533  2534    1
  1901  2533  2535    1
  1902  2533  2536    1
  1903  2537  2538    1
  1904  2537  2539    1
  1905  2537  2540    1
  1906  2541  2542    1
  1907  2541  2543    1
  1908  2541  2544    1
  1909  2545  2546    1
  1910  2545  2547    1
  1911  2545  2548    1
  1912  2549  2550    1
  1913  2549  2551    1
  1914  2549  2552    1
  1915  2553  2554    1
  1916  2553  2555    1
  1917  2553  2556    1
  1918  2557  2558    1
  1919  2557  2559    1
  1920  2557  2560    1
  1921  2561  2562    1
  1922  2561  2563    1
  1923  2561  2564    1
  1924  2565  2566    1
  1925  2565  2567    1
  1926  2565  2568    1
  1927  2569  2570    1
  1928  2569  2571    1
  1929  2569  2572    1
  1930  2573  2574    1
  1931  2573  2575    1
  1932  2573  2576    1
  1933  2577  2578    1
  1934  2577  2579    1
  1935  2577  2580    1
  1936  2581  2582    1
  1937  2581  2583    1
  1938  2581  2584    1
  1939  2585  2586    1
  1940  2585  2587    1
  1941  2585  2588    1
  1942  2589  2590    1
  1943  2589  2591    1
  1944  2589  2592    1
  1945  2593  2594    1
  1946  2593  2595    1
  1947  2593  2596    1
  1948  2597  2598    1
  1949  2597  2599    1
  1950  2597  2600    1
  1951  2601  2602    1
  1952  2601  2603    1
  1953  2601  2604    1
  1954  2605  2606    1
  1955  2605  2607    1
  1956  2605  2608    1
  1957  2609  2610    1
  1958  2609  2611    1
  1959  2609  2612    1
  1960  2613  2614    1
  1961  2613  2615    1
  1962  2613  2616    1
  1963  2617  2618    1
  1964  2617  2619    1
  1965  2617  2620    1
  1966  2621  2622    1
  1967  2621  2623    1
  1968  2621  2624    1
  1969  2625  2626    1
  1970  2625  2627    1
  1971  2625  2628    1
  1972  2629  2630    1
  1973  2629  2631    1
  1974  2629  2632    1
  1975  2633  2634    1
  1976  2633  2635    1
  1977  2633  2636    1
  1978  2637  2638    1
  1979  2637  2639    1
  1980  2637  2640    1
  1981  2641  2642    1
  1982  2641  2643    1
  1983  2641  2644    1
  1984  2645  2646    1
  1985  2645  2647    1
  1986  2645  2648    1
  1987  2649  2650    1
  1988  2649  2651    1
  1989  2649  2652    1
  1990  2653  2654    1
  1991  2653  2655    1
  1992  2653  2656    1
  1993  2657  2658    1
  1994  2657  2659    1
  1995  2657  2660    1
  1996  2661  2662    1
  1997  2661  2663    1
  1998  2661  2664    1
  1999  2665  2666    1
  2000  2665  2667    1
  2001  2665  2668    1
  2002  2669  2670    1
  2003  2669  2671    1
  2004  2669  2672    1
  2005  2673  2674    1
  2006  2673  2675    1
  2007  2673  2676    1
  2008  2677  2678    1
  2009  2677  2679    1
  2010  2677  2680    1
  2011  2681  2682    1
  2012  2681  2683    1
  2013  2681  2684    1
  2014  2685  2686    1
  2015  2685  2687    1
  2016  2685  2688    1
  2017  2689  2690    1
  2018  2689  2691    1
  2019  2689  2692    1
  2020  2693  2694    1
  2021  2693  2695    1
  2022  2693  2696    1
  2023  2697  2698    1
  2024  2697  2699    1
  2025  2697  2700    1
  2026  2701  2702    1
  2027  2701  2703    1
  2028  2701  2704    1
  2029  2705  2706    1
  2030  2705  2707    1
  2031  2705  2708    1
  2032  2709  2710    1
  2033  2709  2711    1
  2034  2709  2712    1
  2035  2713  2714    1
  2036  2713  2715    1
  2037  2713  2716    1
  2038  2717  2718    1
  2039  2717  2719    1
  2040  2717  2720    1
  2041  2721  2722    1
  2042  2721  2723    1
  2043  2721  2724    1
  2044  2725  2726    1
  2045  2725  2727    1
  2046  2725  2728    1
  2047  2729  2730    1
  2048  2729  2731    1
  2049  2729  2732    1
  2050  2733  2734    1
  2051  2733  2735    1
  2052  2733  2736    1
  2053  2737  2738    1
  2054  2737  2739    1
  2055  2737  2740    1
  2056  2741  2742    1
  2057  2741  2743    1
  2058  2741  2744    1
  2059  2745  2746    1
  2060  2745  2747    1
  2061  2745  2748    1
  2062  2749  2750    1
  2063  2749  2751    1
  2064  2749  2752    1
  2065  2753  2754    1
  2066  2753  2755    1
  2067  2753  2756    1
  2068  2757  2758    1
  2069  2757  2759    1
  2070  2757  2760    1
  2071  2761  2762    1
  2072  2761  2763    1
  2073  2761  2764    1
  2074  2765  2766    1
  2075  2765  2767    1
  2076  2765  2768    1
  2077  2769  2770    1
  2078  2769  2771    1
  2079  2769  2772    1
  2080  2773  2774    1
  2081  2773  2775    1
  2082  2773  2776    1
  2083  2777  2778    1
  2084  2777  2779    1
  2085  2777  2780    1
  2086  2781  2782    1
  2087  2781  2783    1
  2088  2781  2784    1
  2089  2785  2786    1
  2090  2785  2787    1
  2091  2785  2788    1
  2092  2789  2790    1
  2093  2789  2791    1
  2094  2789  2792    1
  2095  2793  2794    1
  2096  2793  2795    1
  2097  2793  2796    1
  2098  2797  2798    1
  2099  2797  2799    1
  2100  2797  2800    1
  2101  2801  2802    1
  2102  2801  2803    1
  2103  2801  2804    1
  2104  2805  2806    1
  2105  2805  2807    1
  2106  2805  2808    1
  2107  2809  2810    1
  2108  2809  2811    1
  2109  2809  2812    1
  2110  2813  2814    1
  2111  2813  2815    1
  2112  2813  2816    1
  2113  2817  2818    1
  2114  2817  2819    1
  2115  2817  2820    1
  2116  2821  2822    1
  2117  2821  2823    1
  2118  2821  2824    1
  2119  2825  2826    1
  2120  2825  2827    1
  2121  2825  2828    1
  2122  2829  2830    1
  2123  2829  2831    1
  2124  2829  2832    1
  2125  2833  2834    1
  2126  2833  2835    1
  2127  2833  2836    1
  2128  2837  2838    1
  2129  2837  2839    1
  2130  2837  2840    1
  2131  2841  2842    1
  2132  2841  2843    1
  2133  2841  2844    1
  2134  2845  2846    1
  2135  2845  2847    1
  2136  2845  2848    1
  2137  2849  2850    1
  2138  2849  2851    1
  2139  2849  2852    1
  2140  2853  2854    1
  2141  2853  2855    1
  2142  2853  2856    1
  2143  2857  2858    1
  2144  2857  2859    1
  2145  2857  2860    1
  2146  2861  2862    1
  2147  2861  2863    1
  2148  2861  2864    1
  2149  2865  2866    1
  2150  2865  2867    1
  2151  2865  2868    1
  2152  2869  2870    1
  2153  2869  2871    1
  2154  2869  2872    1
  2155  2873  2874    1
  2156  2873  2875    1
  2157  2873  2876    1
  2158  2877  2878    1
  2159  2877  2879    1
  2160  2877  2880    1
  2161  2881  2882    1
  2162  2881  2883    1
  2163  2881  2884    1
  2164  2885  2886    1
  2165  2885  2887    1
  2166  2885  2888    1
  2167  2889  2890    1
  2168  2889  2891    1
  2169  2889  2892    1
  2170  2893  2894    1
  2171  2893  2895    1
  2172  2893  2896    1
  2173  2897  2898    1
  2174  2897  2899    1
  2175  2897  2900    1
  2176  2901  2902    1
  2177  2901  2903    1
  2178  2901  2904    1
  2179  2905  2906    1
  2180  2905  2907    1
  2181  2905  2908    1
  2182  2909  2910    1
  2183  2909  2911    1
  2184  2909  2912    1
  2185  2913  2914    1
  2186  2913  2915    1
  2187  2913  2916    1
  2188  2917  2918    1
  2189  2917  2919    1
  2190  2917  2920    1
  2191  2921  2922    1
  2192  2921  2923    1
  2193  2921  2924    1
  2194  2925  2926    1
  2195  2925  2927    1
  2196  2925  2928    1
  2197  2929  2930    1
  2198  2929  2931    1
  2199  2929  2932    1
  2200  2933  2934    1
  2201  2933  2935    1
  2202  2933  2936    1
  2203  2937  2938    1
  2204  2937  2939    1
  2205  2937  2940    1
  2206  2941  2942    1
  2207  2941  2943    1
  2208  2941  2944    1
  2209  2945  2946    1
  2210  2945  2947    1
  2211  2945  2948    1
  2212  2949  2950    1
  2213  2949  2951    1
  2214  2949  2952    1
  2215  2953  2954    1
  2216  2953  2955    1
  2217  2953  2956    1
  2218  2957  2958    1
  2219  2957  2959    1
  2220  2957  2960    1
  2221  2961  2962    1
  2222  2961  2963    1
  2223  2961  2964    1
  2224  2965  2966    1
  2225  2965  2967    1
  2226  2965  2968    1
  2227  2969  2970    1
  2228  2969  2971    1
  2229  2969  2972    1
  2230  2973  2974    1
  2231  2973  2975    1
  2232  2973  2976    1
  2233  2977  2978    1
  2234  2977  2979    1
  2235  2977  2980    1
  2236  2981  2982    1
  2237  2981  2983    1
  2238  2981  2984    1
  2239  2985  2986    1
  2240  2985  2987    1
  2241  2985  2988    1
  2242  2989  2990    1
  2243  2989  2991    1
  2244  2989  2992    1
  2245  2993  2994    1
  2246  2993  2995    1
  2247  2993  2996    1
  2248  2997  2998    1
  2249  2997  2999    1
  2250  2997  3000    1
  2251  3001  3002    1
  2252  3001  3003    1
  2253  3001  3004    1
  2254  3005  3006    1
  2255  3005  3007    1
  2256  3005  3008    1
  2257  3009  3010    1
  2258  3009  3011    1
  2259  3009  3012    1
  2260  3013  3014    1
  2261  3013  3015    1
  2262  3013  3016    1
  2263  3017  3018    1
  2264  3017  3019    1
  2265  3017  3020    1
  2266  3021  3022    1
  2267  3021  3023    1
  2268  3021  3024    1
  2269  3025  3026    1
  2270  3025  3027    1
  2271  3025  3028    1
  2272  3029  3030    1
  2273  3029  3031    1
  2274  3029  3032    1
  2275  3033  3034    1
  2276  3033  3035    1
  2277  3033  3036    1
  2278  3037  3038    1
  2279  3037  3039    1
  2280  3037  3040    1
  2281  3041  3042    1
  2282  3041  3043    1
  2283  3041  3044    1
  2284  3045  3046    1
  2285  3045  3047    1
  2286  3045  3048    1
  2287  3049  3050    1
  2288  3049  3051    1
  2289  3049  3052    1
  2290  3053  3054    1
  2291  3053  3055    1
  2292  3053  3056    1
  2293  3057  3058    1
  2294  3057  3059    1
  2295  3057  3060    1
  2296  3061  3062    1
  2297  3061  3063    1
  2298  3061  3064    1
  2299  3065  3066    1
  2300  3065  3067    1
  2301  3065  3068    1
  2302  3069  3070    1
  2303  3069  3071    1
  2304  3069  3072    1
  2305  3073  3074    1
  2306  3073  3075    1
  2307  3073  3076    1
  2308  3077  3078    1
  2309  3077  3079    1
  2310  3077  3080    1
  2311  3081  3082    1
  2312  3081  3083    1
  2313  3081  3084    1
  2314  3085  3086    1
  2315  3085  3087    1
  2316  3085  3088    1
  2317  3089  3090    1
  2318  3089  3091    1
  2319  3089  3092    1
  2320  3093  3094    1
  2321  3093  3095    1
  2322  3093  3096    1
  2323  3097  3098    1
  2324  3097  3099    1
  2325  3097  3100    1
  2326  3101  3102    1
  2327  3101  3103    1
  2328  3101  3104    1
  2329  3105  3106    1
  2330  3105  3107    1
  2331  3105  3108    1
  2332  3109  3110    1
  2333  3109  3111    1
  2334  3109  3112    1
  2335  3113  3114    1
  2336  3113  3115    1
  2337  3113  3116    1
  2338  3117  3118    1
  2339  3117  3119    1
  2340  3117  3120    1
  2341  3121  3122    1
  2342  3121  3123    1
  2343  3121  3124    1
  2344  3125  3126    1
  2345  3125  3127    1
  2346  3125  3128    1
  2347  3129  3130    1
  2348  3129  3131    1
  2349  3129  3132    1
  2350  3133  3134    1
  2351  3133  3135    1
  2352  3133  3136    1
  2353  3137  3138    1
  2354  3137  3139    1
  2355  3137  3140    1
  2356  3141  3142    1
  2357  3141  3143    1
  2358  3141  3144    1
  2359  3145  3146    1
  2360  3145  3147    1
  2361  3145  3148    1
  2362  3149  3150    1
  2363  3149  3151    1
  2364  3149  3152    1
  2365  3153  3154    1
  2366  3153  3155    1
  2367  3153  3156    1
  2368  3157  3158    1
  2369  3157  3159    1
  2370  3157  3160    1
  2371  3161  3162    1
  2372  3161  3163    1
  2373  3161  3164    1
  2374  3165  3166    1
  2375  3165  3167    1
  2376  3165  3168    1
