@<TRIPOS>MOLECULE
*****
 7420 5565 0 0 0
SMALL
GASTEIGER

@<TRIPOS>ATOM
      1 N          -1.0266   -0.2567   -0.2269 N.3     1  UNL1       -0.3437
      2 H          -1.4683    0.0339    0.6442 H       1  UNL1        0.1146
      3 H          -0.3010    0.4329   -0.4176 H       1  UNL1        0.1146
      4 H          -0.5391   -1.1268   -0.0180 H       1  UNL1        0.1146
      5 N          -1.0266   -0.2567    2.4140 N.3     2  UNL2       -0.3437
      6 H          -1.4683    0.0339    3.2851 H       2  UNL2        0.1146
      7 H          -0.3010    0.4329    2.2233 H       2  UNL2        0.1146
      8 H          -0.5391   -1.1268    2.6229 H       2  UNL2        0.1146
      9 N          -1.0266   -0.2567    5.0548 N.3     3  UNL3       -0.3437
     10 H          -1.4683    0.0339    5.9259 H       3  UNL3        0.1146
     11 H          -0.3010    0.4329    4.8641 H       3  UNL3        0.1146
     12 H          -0.5391   -1.1268    5.2637 H       3  UNL3        0.1146
     13 N          -1.0266   -0.2567    7.6956 N.3     4  UNL4       -0.3437
     14 H          -1.4683    0.0339    8.5667 H       4  UNL4        0.1146
     15 H          -0.3010    0.4329    7.5049 H       4  UNL4        0.1146
     16 H          -0.5391   -1.1268    7.9045 H       4  UNL4        0.1146
     17 N          -1.0266   -0.2567   10.3364 N.3     5  UNL5       -0.3437
     18 H          -1.4683    0.0339   11.2075 H       5  UNL5        0.1146
     19 H          -0.3010    0.4329   10.1457 H       5  UNL5        0.1146
     20 H          -0.5391   -1.1268   10.5453 H       5  UNL5        0.1146
     21 N          -1.0266   -0.2567   12.9773 N.3     6  UNL6       -0.3437
     22 H          -1.4683    0.0339   13.8484 H       6  UNL6        0.1146
     23 H          -0.3010    0.4329   12.7866 H       6  UNL6        0.1146
     24 H          -0.5391   -1.1268   13.1862 H       6  UNL6        0.1146
     25 N          -1.0266   -0.2567   15.6181 N.3     7  UNL7       -0.3437
     26 H          -1.4683    0.0339   16.4892 H       7  UNL7        0.1146
     27 H          -0.3010    0.4329   15.4274 H       7  UNL7        0.1146
     28 H          -0.5391   -1.1268   15.8270 H       7  UNL7        0.1146
     29 N          -1.0266   -0.2567   18.2589 N.3     8  UNL8       -0.3437
     30 H          -1.4683    0.0339   19.1300 H       8  UNL8        0.1146
     31 H          -0.3010    0.4329   18.0682 H       8  UNL8        0.1146
     32 H          -0.5391   -1.1268   18.4678 H       8  UNL8        0.1146
     33 N          -1.0266   -0.2567   20.8997 N.3     9  UNL9       -0.3437
     34 H          -1.4683    0.0339   21.7708 H       9  UNL9        0.1146
     35 H          -0.3010    0.4329   20.7090 H       9  UNL9        0.1146
     36 H          -0.5391   -1.1268   21.1086 H       9  UNL9        0.1146
     37 N          -1.0266    2.5631   -0.2269 N.3    10  UNL10      -0.3437
     38 H          -1.4683    2.8537    0.6442 H      10  UNL10       0.1146
     39 H          -0.3010    3.2527   -0.4176 H      10  UNL10       0.1146
     40 H          -0.5391    1.6930   -0.0180 H      10  UNL10       0.1146
     41 N          -1.0266    2.5631    2.4140 N.3    11  UNL11      -0.3437
     42 H          -1.4683    2.8537    3.2851 H      11  UNL11       0.1146
     43 H          -0.3010    3.2527    2.2233 H      11  UNL11       0.1146
     44 H          -0.5391    1.6930    2.6229 H      11  UNL11       0.1146
     45 N          -1.0266    2.5631    5.0548 N.3    12  UNL12      -0.3437
     46 H          -1.4683    2.8537    5.9259 H      12  UNL12       0.1146
     47 H          -0.3010    3.2527    4.8641 H      12  UNL12       0.1146
     48 H          -0.5391    1.6930    5.2637 H      12  UNL12       0.1146
     49 N          -1.0266    2.5631    7.6956 N.3    13  UNL13      -0.3437
     50 H          -1.4683    2.8537    8.5667 H      13  UNL13       0.1146
     51 H          -0.3010    3.2527    7.5049 H      13  UNL13       0.1146
     52 H          -0.5391    1.6930    7.9045 H      13  UNL13       0.1146
     53 N          -1.0266    2.5631   10.3364 N.3    14  UNL14      -0.3437
     54 H          -1.4683    2.8537   11.2075 H      14  UNL14       0.1146
     55 H          -0.3010    3.2527   10.1457 H      14  UNL14       0.1146
     56 H          -0.5391    1.6930   10.5453 H      14  UNL14       0.1146
     57 N          -1.0266    2.5631   12.9773 N.3    15  UNL15      -0.3437
     58 H          -1.4683    2.8537   13.8484 H      15  UNL15       0.1146
     59 H          -0.3010    3.2527   12.7866 H      15  UNL15       0.1146
     60 H          -0.5391    1.6930   13.1862 H      15  UNL15       0.1146
     61 N          -1.0266    2.5631   15.6181 N.3    16  UNL16      -0.3437
     62 H          -1.4683    2.8537   16.4892 H      16  UNL16       0.1146
     63 H          -0.3010    3.2527   15.4274 H      16  UNL16       0.1146
     64 H          -0.5391    1.6930   15.8270 H      16  UNL16       0.1146
     65 N          -1.0266    2.5631   18.2589 N.3    17  UNL17      -0.3437
     66 H          -1.4683    2.8537   19.1300 H      17  UNL17       0.1146
     67 H          -0.3010    3.2527   18.0682 H      17  UNL17       0.1146
     68 H          -0.5391    1.6930   18.4678 H      17  UNL17       0.1146
     69 N          -1.0266    2.7852   21.2331 N.3    18  UNL18      -0.3437
     70 H          -1.4683    1.9134   20.9446 H      18  UNL18       0.1146
     71 H          -0.3010    2.5253   21.8997 H      18  UNL18       0.1146
     72 H          -0.5391    3.1385   20.4110 H      18  UNL18       0.1146
     73 N          -1.0266    5.6050    0.1065 N.3    19  UNL19      -0.3437
     74 H          -1.4683    4.7332   -0.1820 H      19  UNL19       0.1146
     75 H          -0.3010    5.3450    0.7731 H      19  UNL19       0.1146
     76 H          -0.5391    5.9583   -0.7156 H      19  UNL19       0.1146
     77 N          -1.0266    5.6050    2.7473 N.3    20  UNL20      -0.3437
     78 H          -1.4683    4.7332    2.4588 H      20  UNL20       0.1146
     79 H          -0.3010    5.3450    3.4139 H      20  UNL20       0.1146
     80 H          -0.5391    5.9583    1.9252 H      20  UNL20       0.1146
     81 N          -1.0266    5.6050    5.3881 N.3    21  UNL21      -0.3437
     82 H          -1.4683    4.7332    5.0996 H      21  UNL21       0.1146
     83 H          -0.3010    5.3450    6.0547 H      21  UNL21       0.1146
     84 H          -0.5391    5.9583    4.5660 H      21  UNL21       0.1146
     85 N          -1.0266    5.6050    8.0289 N.3    22  UNL22      -0.3437
     86 H          -1.4683    4.7332    7.7404 H      22  UNL22       0.1146
     87 H          -0.3010    5.3450    8.6955 H      22  UNL22       0.1146
     88 H          -0.5391    5.9583    7.2068 H      22  UNL22       0.1146
     89 N          -1.0266    5.3829   10.3364 N.3    23  UNL23      -0.3437
     90 H          -1.4683    5.6735   11.2075 H      23  UNL23       0.1146
     91 H          -0.3010    6.0725   10.1457 H      23  UNL23       0.1146
     92 H          -0.5391    4.5128   10.5453 H      23  UNL23       0.1146
     93 N          -1.0266    5.3829   12.9773 N.3    24  UNL24      -0.3437
     94 H          -1.4683    5.6735   13.8484 H      24  UNL24       0.1146
     95 H          -0.3010    6.0725   12.7866 H      24  UNL24       0.1146
     96 H          -0.5391    4.5128   13.1862 H      24  UNL24       0.1146
     97 N          -1.0266    5.3829   15.6181 N.3    25  UNL25      -0.3437
     98 H          -1.4683    5.6735   16.4892 H      25  UNL25       0.1146
     99 H          -0.3010    6.0725   15.4274 H      25  UNL25       0.1146
    100 H          -0.5391    4.5128   15.8270 H      25  UNL25       0.1146
    101 N          -1.0266    5.3829   18.2589 N.3    26  UNL26      -0.3437
    102 H          -1.4683    5.6735   19.1300 H      26  UNL26       0.1146
    103 H          -0.3010    6.0725   18.0682 H      26  UNL26       0.1146
    104 H          -0.5391    4.5128   18.4678 H      26  UNL26       0.1146
    105 N          -1.0266    5.3829   20.8997 N.3    27  UNL27      -0.3437
    106 H          -1.4683    5.6735   21.7708 H      27  UNL27       0.1146
    107 H          -0.3010    6.0725   20.7090 H      27  UNL27       0.1146
    108 H          -0.5391    4.5128   21.1086 H      27  UNL27       0.1146
    109 N          -1.0266    8.2026   -0.2269 N.3    28  UNL28      -0.3437
    110 H          -1.4683    8.4932    0.6442 H      28  UNL28       0.1146
    111 H          -0.3010    8.8922   -0.4176 H      28  UNL28       0.1146
    112 H          -0.5391    7.3325   -0.0180 H      28  UNL28       0.1146
    113 N          -1.0266    8.2026    2.4140 N.3    29  UNL29      -0.3437
    114 H          -1.4683    8.4932    3.2851 H      29  UNL29       0.1146
    115 H          -0.3010    8.8922    2.2233 H      29  UNL29       0.1146
    116 H          -0.5391    7.3325    2.6229 H      29  UNL29       0.1146
    117 N          -1.0266    8.2026    5.0548 N.3    30  UNL30      -0.3437
    118 H          -1.4683    8.4932    5.9259 H      30  UNL30       0.1146
    119 H          -0.3010    8.8922    4.8641 H      30  UNL30       0.1146
    120 H          -0.5391    7.3325    5.2637 H      30  UNL30       0.1146
    121 N          -1.0266    8.2026    7.6956 N.3    31  UNL31      -0.3437
    122 H          -1.4683    8.4932    8.5667 H      31  UNL31       0.1146
    123 H          -0.3010    8.8922    7.5049 H      31  UNL31       0.1146
    124 H          -0.5391    7.3325    7.9045 H      31  UNL31       0.1146
    125 N          -0.8964    8.2026   13.4871 N.3    32  UNL32      -0.3437
    126 H           0.0658    8.4932   13.3197 H      32  UNL32       0.1146
    127 H          -1.4834    8.8922   13.0199 H      32  UNL32       0.1146
    128 H          -1.0208    7.3325   12.9716 H      32  UNL32       0.1146
    129 N          -1.0266    8.2026   15.6181 N.3    33  UNL33      -0.3437
    130 H          -1.4683    8.4932   16.4892 H      33  UNL33       0.1146
    131 H          -0.3010    8.8922   15.4274 H      33  UNL33       0.1146
    132 H          -0.5391    7.3325   15.8270 H      33  UNL33       0.1146
    133 N          -1.0266    8.2026   18.2589 N.3    34  UNL34      -0.3437
    134 H          -1.4683    8.4932   19.1300 H      34  UNL34       0.1146
    135 H          -0.3010    8.8922   18.0682 H      34  UNL34       0.1146
    136 H          -0.5391    7.3325   18.4678 H      34  UNL34       0.1146
    137 N          -1.0266    8.2026   20.8997 N.3    35  UNL35      -0.3437
    138 H          -1.4683    8.4932   21.7708 H      35  UNL35       0.1146
    139 H          -0.3010    8.8922   20.7090 H      35  UNL35       0.1146
    140 H          -0.5391    7.3325   21.1086 H      35  UNL35       0.1146
    141 N          -1.0266   11.2445    0.1065 N.3    36  UNL36      -0.3437
    142 H          -1.4683   10.3727   -0.1820 H      36  UNL36       0.1146
    143 H          -0.3010   10.9846    0.7731 H      36  UNL36       0.1146
    144 H          -0.5391   11.5979   -0.7156 H      36  UNL36       0.1146
    145 N          -1.0266   11.2445    5.3881 N.3    37  UNL37      -0.3437
    146 H          -1.4683   10.3727    5.0996 H      37  UNL37       0.1146
    147 H          -0.3010   10.9846    6.0547 H      37  UNL37       0.1146
    148 H          -0.5391   11.5979    4.5660 H      37  UNL37       0.1146
    149 N          -1.0266   11.2445    8.0289 N.3    38  UNL38      -0.3437
    150 H          -1.4683   10.3727    7.7404 H      38  UNL38       0.1146
    151 H          -0.3010   10.9846    8.6955 H      38  UNL38       0.1146
    152 H          -0.5391   11.5979    7.2068 H      38  UNL38       0.1146
    153 N          -1.0266   11.0224   10.3364 N.3    39  UNL39      -0.3437
    154 H          -1.4683   11.3130   11.2075 H      39  UNL39       0.1146
    155 H          -0.3010   11.7120   10.1457 H      39  UNL39       0.1146
    156 H          -0.5391   10.1523   10.5453 H      39  UNL39       0.1146
    157 N          -1.0266   11.0224   12.9773 N.3    40  UNL40      -0.3437
    158 H          -1.4683   11.3130   13.8484 H      40  UNL40       0.1146
    159 H          -0.3010   11.7120   12.7866 H      40  UNL40       0.1146
    160 H          -0.5391   10.1523   13.1862 H      40  UNL40       0.1146
    161 N          -1.0266   10.8883   15.9955 N.3    41  UNL41      -0.3437
    162 H          -1.4683   11.4123   15.2414 H      41  UNL41       0.1146
    163 H          -0.3010   10.3228   15.5572 H      41  UNL41       0.1146
    164 H          -0.5391   11.5764   16.5676 H      41  UNL41       0.1146
    165 N          -1.0266   11.2445   18.5922 N.3    42  UNL42      -0.3437
    166 H          -1.4683   10.3727   18.3037 H      42  UNL42       0.1146
    167 H          -0.3010   10.9846   19.2588 H      42  UNL42       0.1146
    168 H          -0.5391   11.5979   17.7701 H      42  UNL42       0.1146
    169 N          -1.0266   11.2445   21.2331 N.3    43  UNL43      -0.3437
    170 H          -1.4683   10.3727   20.9446 H      43  UNL43       0.1146
    171 H          -0.3010   10.9846   21.8997 H      43  UNL43       0.1146
    172 H          -0.5391   11.5979   20.4110 H      43  UNL43       0.1146
    173 N          -1.0266   14.0643    0.1065 N.3    44  UNL44      -0.3437
    174 H          -1.4683   13.1925   -0.1820 H      44  UNL44       0.1146
    175 H          -0.3010   13.8044    0.7731 H      44  UNL44       0.1146
    176 H          -0.5391   14.4176   -0.7156 H      44  UNL44       0.1146
    177 N          -1.0266   14.0643    2.7473 N.3    45  UNL45      -0.3437
    178 H          -1.4683   13.1925    2.4588 H      45  UNL45       0.1146
    179 H          -0.3010   13.8044    3.4139 H      45  UNL45       0.1146
    180 H          -0.5391   14.4176    1.9252 H      45  UNL45       0.1146
    181 N          -1.0266   14.0643    5.3881 N.3    46  UNL46      -0.3437
    182 H          -1.4683   13.1925    5.0996 H      46  UNL46       0.1146
    183 H          -0.3010   13.8044    6.0547 H      46  UNL46       0.1146
    184 H          -0.5391   14.4176    4.5660 H      46  UNL46       0.1146
    185 N          -1.0266   14.0643    8.0289 N.3    47  UNL47      -0.3437
    186 H          -1.4683   13.1925    7.7404 H      47  UNL47       0.1146
    187 H          -0.3010   13.8044    8.6955 H      47  UNL47       0.1146
    188 H          -0.5391   14.4176    7.2068 H      47  UNL47       0.1146
    189 N          -1.0266   13.8422   10.3364 N.3    48  UNL48      -0.3437
    190 H          -1.4683   14.1328   11.2075 H      48  UNL48       0.1146
    191 H          -0.3010   14.5318   10.1457 H      48  UNL48       0.1146
    192 H          -0.5391   12.9721   10.5453 H      48  UNL48       0.1146
    193 N          -1.0266   14.0643   18.5922 N.3    49  UNL49      -0.3437
    194 H          -1.4683   13.1925   18.3037 H      49  UNL49       0.1146
    195 H          -0.3010   13.8044   19.2588 H      49  UNL49       0.1146
    196 H          -0.5391   14.4176   17.7701 H      49  UNL49       0.1146
    197 N          -1.0266   14.0643   21.2331 N.3    50  UNL50      -0.3437
    198 H          -1.4683   13.1925   20.9446 H      50  UNL50       0.1146
    199 H          -0.3010   13.8044   21.8997 H      50  UNL50       0.1146
    200 H          -0.5391   14.4176   20.4110 H      50  UNL50       0.1146
    201 N          -1.0266   16.6619   10.3364 N.3    51  UNL51      -0.3437
    202 H          -1.4683   16.9525   11.2075 H      51  UNL51       0.1146
    203 H          -0.3010   17.3516   10.1457 H      51  UNL51       0.1146
    204 H          -0.5391   15.7919   10.5453 H      51  UNL51       0.1146
    205 N          -1.0266   16.6619   12.9773 N.3    52  UNL52      -0.3437
    206 H          -1.4683   16.9525   13.8484 H      52  UNL52       0.1146
    207 H          -0.3010   17.3516   12.7866 H      52  UNL52       0.1146
    208 H          -0.5391   15.7919   13.1862 H      52  UNL52       0.1146
    209 N          -1.0266   16.6619   15.6181 N.3    53  UNL53      -0.3437
    210 H          -1.4683   16.9525   16.4892 H      53  UNL53       0.1146
    211 H          -0.3010   17.3516   15.4274 H      53  UNL53       0.1146
    212 H          -0.5391   15.7919   15.8270 H      53  UNL53       0.1146
    213 N          -1.0266   16.8841   18.5922 N.3    54  UNL54      -0.3437
    214 H          -1.4683   16.0123   18.3037 H      54  UNL54       0.1146
    215 H          -0.3010   16.6241   19.2588 H      54  UNL54       0.1146
    216 H          -0.5391   17.2374   17.7701 H      54  UNL54       0.1146
    217 N          -1.0266   16.8841   21.2331 N.3    55  UNL55      -0.3437
    218 H          -1.4683   16.0123   20.9446 H      55  UNL55       0.1146
    219 H          -0.3010   16.6241   21.8997 H      55  UNL55       0.1146
    220 H          -0.5391   17.2374   20.4110 H      55  UNL55       0.1146
    221 N          -1.0266   19.7038    0.1065 N.3    56  UNL56      -0.3437
    222 H          -1.4683   18.8320   -0.1820 H      56  UNL56       0.1146
    223 H          -0.3010   19.4439    0.7731 H      56  UNL56       0.1146
    224 H          -0.5391   20.0572   -0.7156 H      56  UNL56       0.1146
    225 N          -1.0266   19.7038    2.7473 N.3    57  UNL57      -0.3437
    226 H          -1.4683   18.8320    2.4588 H      57  UNL57       0.1146
    227 H          -0.3010   19.4439    3.4139 H      57  UNL57       0.1146
    228 H          -0.5391   20.0572    1.9252 H      57  UNL57       0.1146
    229 N          -1.0266   19.7038    5.3881 N.3    58  UNL58      -0.3437
    230 H          -1.4683   18.8320    5.0996 H      58  UNL58       0.1146
    231 H          -0.3010   19.4439    6.0547 H      58  UNL58       0.1146
    232 H          -0.5391   20.0572    4.5660 H      58  UNL58       0.1146
    233 N          -1.0266   19.7038    8.0289 N.3    59  UNL59      -0.3437
    234 H          -1.4683   18.8320    7.7404 H      59  UNL59       0.1146
    235 H          -0.3010   19.4439    8.6955 H      59  UNL59       0.1146
    236 H          -0.5391   20.0572    7.2068 H      59  UNL59       0.1146
    237 N          -1.0266   19.4817   10.3364 N.3    60  UNL60      -0.3437
    238 H          -1.4683   19.7723   11.2075 H      60  UNL60       0.1146
    239 H          -0.3010   20.1713   10.1457 H      60  UNL60       0.1146
    240 H          -0.5391   18.6116   10.5453 H      60  UNL60       0.1146
    241 N          -1.0266   19.3476   13.3547 N.3    61  UNL61      -0.3437
    242 H          -1.4683   19.8716   12.6006 H      61  UNL61       0.1146
    243 H          -0.3010   18.7821   12.9163 H      61  UNL61       0.1146
    244 H          -0.5391   20.0357   13.9268 H      61  UNL61       0.1146
    245 N          -0.8964   19.4817   16.1280 N.3    62  UNL62      -0.3437
    246 H           0.0658   19.7723   15.9605 H      62  UNL62       0.1146
    247 H          -1.4834   20.1713   15.6608 H      62  UNL62       0.1146
    248 H          -1.0208   18.6116   15.6124 H      62  UNL62       0.1146
    249 N          -1.0266   19.7038   18.5922 N.3    63  UNL63      -0.3437
    250 H          -1.4683   18.8320   18.3037 H      63  UNL63       0.1146
    251 H          -0.3010   19.4439   19.2588 H      63  UNL63       0.1146
    252 H          -0.5391   20.0572   17.7701 H      63  UNL63       0.1146
    253 N          -1.0266   19.7038   21.2331 N.3    64  UNL64      -0.3437
    254 H          -1.4683   18.8320   20.9446 H      64  UNL64       0.1146
    255 H          -0.3010   19.4439   21.8997 H      64  UNL64       0.1146
    256 H          -0.5391   20.0572   20.4110 H      64  UNL64       0.1146
    257 N          -1.0266   22.5236    0.1065 N.3    65  UNL65      -0.3437
    258 H          -1.4683   21.6518   -0.1820 H      65  UNL65       0.1146
    259 H          -0.3010   22.2637    0.7731 H      65  UNL65       0.1146
    260 H          -0.5391   22.8770   -0.7156 H      65  UNL65       0.1146
    261 N          -1.0266   22.5236    5.3881 N.3    66  UNL66      -0.3437
    262 H          -1.4683   21.6518    5.0996 H      66  UNL66       0.1146
    263 H          -0.3010   22.2637    6.0547 H      66  UNL66       0.1146
    264 H          -0.5391   22.8770    4.5660 H      66  UNL66       0.1146
    265 N          -1.0266   22.5236    8.0289 N.3    67  UNL67      -0.3437
    266 H          -1.4683   21.6518    7.7404 H      67  UNL67       0.1146
    267 H          -0.3010   22.2637    8.6955 H      67  UNL67       0.1146
    268 H          -0.5391   22.8770    7.2068 H      67  UNL67       0.1146
    269 N          -1.0266   22.3015   10.3364 N.3    68  UNL68      -0.3437
    270 H          -1.4683   22.5921   11.2075 H      68  UNL68       0.1146
    271 H          -0.3010   22.9911   10.1457 H      68  UNL68       0.1146
    272 H          -0.5391   21.4314   10.5453 H      68  UNL68       0.1146
    273 N          -1.0266   22.3015   12.9773 N.3    69  UNL69      -0.3437
    274 H          -1.4683   22.5921   13.8484 H      69  UNL69       0.1146
    275 H          -0.3010   22.9911   12.7866 H      69  UNL69       0.1146
    276 H          -0.5391   21.4314   13.1862 H      69  UNL69       0.1146
    277 N          -1.0266   22.3015   15.6181 N.3    70  UNL70      -0.3437
    278 H          -1.4683   22.5921   16.4892 H      70  UNL70       0.1146
    279 H          -0.3010   22.9911   15.4274 H      70  UNL70       0.1146
    280 H          -0.5391   21.4314   15.8270 H      70  UNL70       0.1146
    281 N          -1.0266   22.5236   18.5922 N.3    71  UNL71      -0.3437
    282 H          -1.4683   21.6518   18.3037 H      71  UNL71       0.1146
    283 H          -0.3010   22.2637   19.2588 H      71  UNL71       0.1146
    284 H          -0.5391   22.8770   17.7701 H      71  UNL71       0.1146
    285 N          -1.0266   25.1213    0.4140 N.3    72  UNL72      -0.3437
    286 H          -1.4683   25.4119    1.2851 H      72  UNL72       0.1146
    287 H          -0.3010   25.8109    0.2233 H      72  UNL72       0.1146
    288 H          -0.5391   24.2512    0.6229 H      72  UNL72       0.1146
    289 N          -1.0266   25.1213    3.0548 N.3    73  UNL73      -0.3437
    290 H          -1.4683   25.4119    3.9259 H      73  UNL73       0.1146
    291 H          -0.3010   25.8109    2.8641 H      73  UNL73       0.1146
    292 H          -0.5391   24.2512    3.2637 H      73  UNL73       0.1146
    293 N          -1.0266   25.1213    5.6956 N.3    74  UNL74      -0.3437
    294 H          -1.4683   25.4119    6.5667 H      74  UNL74       0.1146
    295 H          -0.3010   25.8109    5.5049 H      74  UNL74       0.1146
    296 H          -0.5391   24.2512    5.9045 H      74  UNL74       0.1146
    297 N          -1.0266   24.9872   13.3547 N.3    75  UNL75      -0.3437
    298 H          -1.4683   25.5111   12.6006 H      75  UNL75       0.1146
    299 H          -0.3010   24.4217   12.9163 H      75  UNL75       0.1146
    300 H          -0.5391   25.6752   13.9268 H      75  UNL75       0.1146
    301 N          -1.0266   25.3434   15.9514 N.3    76  UNL76      -0.3437
    302 H          -1.4683   24.4716   15.6629 H      76  UNL76       0.1146
    303 H          -0.3010   25.0835   16.6180 H      76  UNL76       0.1146
    304 H          -0.5391   25.6967   15.1293 H      76  UNL76       0.1146
    305 N          -1.0266   25.3434   18.5922 N.3    77  UNL77      -0.3437
    306 H          -1.4683   24.4716   18.3037 H      77  UNL77       0.1146
    307 H          -0.3010   25.0835   19.2588 H      77  UNL77       0.1146
    308 H          -0.5391   25.6967   17.7701 H      77  UNL77       0.1146
    309 N          -1.0266   25.3434   21.2331 N.3    78  UNL78      -0.3437
    310 H          -1.4683   24.4716   20.9446 H      78  UNL78       0.1146
    311 H          -0.3010   25.0835   21.8997 H      78  UNL78       0.1146
    312 H          -0.5391   25.6967   20.4110 H      78  UNL78       0.1146
    313 N          -1.0266   28.1632    0.1065 N.3    79  UNL79      -0.3437
    314 H          -1.4683   27.2914   -0.1820 H      79  UNL79       0.1146
    315 H          -0.3010   27.9032    0.7731 H      79  UNL79       0.1146
    316 H          -0.5391   28.5165   -0.7156 H      79  UNL79       0.1146
    317 N          -1.0266   28.1632    2.7473 N.3    80  UNL80      -0.3437
    318 H          -1.4683   27.2914    2.4588 H      80  UNL80       0.1146
    319 H          -0.3010   27.9032    3.4139 H      80  UNL80       0.1146
    320 H          -0.5391   28.5165    1.9252 H      80  UNL80       0.1146
    321 N          -1.0266   28.1632    5.3881 N.3    81  UNL81      -0.3437
    322 H          -1.4683   27.2914    5.0996 H      81  UNL81       0.1146
    323 H          -0.3010   27.9032    6.0547 H      81  UNL81       0.1146
    324 H          -0.5391   28.5165    4.5660 H      81  UNL81       0.1146
    325 N          -1.0266   28.1632    8.0289 N.3    82  UNL82      -0.3437
    326 H          -1.4683   27.2914    7.7404 H      82  UNL82       0.1146
    327 H          -0.3010   27.9032    8.6955 H      82  UNL82       0.1146
    328 H          -0.5391   28.5165    7.2068 H      82  UNL82       0.1146
    329 N          -1.0266   28.1632   10.6698 N.3    83  UNL83      -0.3437
    330 H          -1.4683   27.2914   10.3813 H      83  UNL83       0.1146
    331 H          -0.3010   27.9032   11.3364 H      83  UNL83       0.1146
    332 H          -0.5391   28.5165    9.8477 H      83  UNL83       0.1146
    333 N          -1.0266   28.1632   13.3106 N.3    84  UNL84      -0.3437
    334 H          -1.4683   27.2914   13.0221 H      84  UNL84       0.1146
    335 H          -0.3010   27.9032   13.9772 H      84  UNL84       0.1146
    336 H          -0.5391   28.5165   12.4885 H      84  UNL84       0.1146
    337 N          -1.0266   28.1632   15.9514 N.3    85  UNL85      -0.3437
    338 H          -1.4683   27.2914   15.6629 H      85  UNL85       0.1146
    339 H          -0.3010   27.9032   16.6180 H      85  UNL85       0.1146
    340 H          -0.5391   28.5165   15.1293 H      85  UNL85       0.1146
    341 N          -1.0266   28.1632   18.5922 N.3    86  UNL86      -0.3437
    342 H          -1.4683   27.2914   18.3037 H      86  UNL86       0.1146
    343 H          -0.3010   27.9032   19.2588 H      86  UNL86       0.1146
    344 H          -0.5391   28.5165   17.7701 H      86  UNL86       0.1146
    345 N          -1.0266   28.1632   21.2331 N.3    87  UNL87      -0.3437
    346 H          -1.4683   27.2914   20.9446 H      87  UNL87       0.1146
    347 H          -0.3010   27.9032   21.8997 H      87  UNL87       0.1146
    348 H          -0.5391   28.5165   20.4110 H      87  UNL87       0.1146
    349 N          -1.0266   30.7608   -0.2269 N.3    88  UNL88      -0.3437
    350 H          -1.4683   31.0514    0.6442 H      88  UNL88       0.1146
    351 H          -0.3010   31.4504   -0.4176 H      88  UNL88       0.1146
    352 H          -0.5391   29.8907   -0.0180 H      88  UNL88       0.1146
    353 N          -1.0266   30.7608    2.4140 N.3    89  UNL89      -0.3437
    354 H          -1.4683   31.0514    3.2851 H      89  UNL89       0.1146
    355 H          -0.3010   31.4504    2.2233 H      89  UNL89       0.1146
    356 H          -0.5391   29.8907    2.6229 H      89  UNL89       0.1146
    357 N          -1.0266   30.7608    5.0548 N.3    90  UNL90      -0.3437
    358 H          -1.4683   31.0514    5.9259 H      90  UNL90       0.1146
    359 H          -0.3010   31.4504    4.8641 H      90  UNL90       0.1146
    360 H          -0.5391   29.8907    5.2637 H      90  UNL90       0.1146
    361 N          -1.0266   30.7608    7.6956 N.3    91  UNL91      -0.3437
    362 H          -1.4683   31.0514    8.5667 H      91  UNL91       0.1146
    363 H          -0.3010   31.4504    7.5049 H      91  UNL91       0.1146
    364 H          -0.5391   29.8907    7.9045 H      91  UNL91       0.1146
    365 N          -1.0266   30.7608   12.9773 N.3    92  UNL92      -0.3437
    366 H          -1.4683   31.0514   13.8484 H      92  UNL92       0.1146
    367 H          -0.3010   31.4504   12.7866 H      92  UNL92       0.1146
    368 H          -0.5391   29.8907   13.1862 H      92  UNL92       0.1146
    369 N          -1.0266   30.7608   15.6181 N.3    93  UNL93      -0.3437
    370 H          -1.4683   31.0514   16.4892 H      93  UNL93       0.1146
    371 H          -0.3010   31.4504   15.4274 H      93  UNL93       0.1146
    372 H          -0.5391   29.8907   15.8270 H      93  UNL93       0.1146
    373 N          -1.0266   30.7608   18.2589 N.3    94  UNL94      -0.3437
    374 H          -1.4683   31.0514   19.1300 H      94  UNL94       0.1146
    375 H          -0.3010   31.4504   18.0682 H      94  UNL94       0.1146
    376 H          -0.5391   29.8907   18.4678 H      94  UNL94       0.1146
    377 N          -1.0266   30.7608   20.8997 N.3    95  UNL95      -0.3437
    378 H          -1.4683   31.0514   21.7708 H      95  UNL95       0.1146
    379 H          -0.3010   31.4504   20.7090 H      95  UNL95       0.1146
    380 H          -0.5391   29.8907   21.1086 H      95  UNL95       0.1146
    381 N          -1.0266   33.5806   -0.2269 N.3    96  UNL96      -0.3437
    382 H          -1.4683   33.8712    0.6442 H      96  UNL96       0.1146
    383 H          -0.3010   34.2702   -0.4176 H      96  UNL96       0.1146
    384 H          -0.5391   32.7105   -0.0180 H      96  UNL96       0.1146
    385 N          -1.0266   33.5806    2.4140 N.3    97  UNL97      -0.3437
    386 H          -1.4683   33.8712    3.2851 H      97  UNL97       0.1146
    387 H          -0.3010   34.2702    2.2233 H      97  UNL97       0.1146
    388 H          -0.5391   32.7105    2.6229 H      97  UNL97       0.1146
    389 N          -1.0266   33.5806    5.0548 N.3    98  UNL98      -0.3437
    390 H          -1.4683   33.8712    5.9259 H      98  UNL98       0.1146
    391 H          -0.3010   34.2702    4.8641 H      98  UNL98       0.1146
    392 H          -0.5391   32.7105    5.2637 H      98  UNL98       0.1146
    393 N          -1.0266   33.5806    7.6956 N.3    99  UNL99      -0.3437
    394 H          -1.4683   33.8712    8.5667 H      99  UNL99       0.1146
    395 H          -0.3010   34.2702    7.5049 H      99  UNL99       0.1146
    396 H          -0.5391   32.7105    7.9045 H      99  UNL99       0.1146
    397 N          -1.0266   33.5806   10.3364 N.3   100  UNL100     -0.3437
    398 H          -1.4683   33.8712   11.2075 H     100  UNL100      0.1146
    399 H          -0.3010   34.2702   10.1457 H     100  UNL100      0.1146
    400 H          -0.5391   32.7105   10.5453 H     100  UNL100      0.1146
    401 N          -1.0266   33.5806   12.9773 N.3   101  UNL101     -0.3437
    402 H          -1.4683   33.8712   13.8484 H     101  UNL101      0.1146
    403 H          -0.3010   34.2702   12.7866 H     101  UNL101      0.1146
    404 H          -0.5391   32.7105   13.1862 H     101  UNL101      0.1146
    405 N          -1.0266   33.5806   15.6181 N.3   102  UNL102     -0.3437
    406 H          -1.4683   33.8712   16.4892 H     102  UNL102      0.1146
    407 H          -0.3010   34.2702   15.4274 H     102  UNL102      0.1146
    408 H          -0.5391   32.7105   15.8270 H     102  UNL102      0.1146
    409 N          -1.0266   33.5806   18.2589 N.3   103  UNL103     -0.3437
    410 H          -1.4683   33.8712   19.1300 H     103  UNL103      0.1146
    411 H          -0.3010   34.2702   18.0682 H     103  UNL103      0.1146
    412 H          -0.5391   32.7105   18.4678 H     103  UNL103      0.1146
    413 N          -1.0266   33.5806   20.8997 N.3   104  UNL104     -0.3437
    414 H          -1.4683   33.8712   21.7708 H     104  UNL104      0.1146
    415 H          -0.3010   34.2702   20.7090 H     104  UNL104      0.1146
    416 H          -0.5391   32.7105   21.1086 H     104  UNL104      0.1146
    417 N          -1.0820   36.5865    0.6601 N.3   105  UNL105     -0.3437
    418 H          -0.6659   36.3679    1.5642 H     105  UNL105      0.1146
    419 H          -0.3580   37.0652    0.1260 H     105  UNL105      0.1146
    420 H          -1.2289   35.6919    0.1948 H     105  UNL105      0.1146
    421 N          -1.0266   36.2663    5.4322 N.3   106  UNL106     -0.3437
    422 H          -1.4683   36.7902    4.6781 H     106  UNL106      0.1146
    423 H          -0.3010   35.7008    4.9939 H     106  UNL106      0.1146
    424 H          -0.5391   36.9543    6.0043 H     106  UNL106      0.1146
    425 N          -1.0266   36.4004    7.6956 N.3   107  UNL107     -0.3437
    426 H          -1.4683   36.6910    8.5667 H     107  UNL107      0.1146
    427 H          -0.3010   37.0900    7.5049 H     107  UNL107      0.1146
    428 H          -0.5391   35.5303    7.9045 H     107  UNL107      0.1146
    429 N          -1.0266   36.4004   10.3364 N.3   108  UNL108     -0.3437
    430 H          -1.4683   36.6910   11.2075 H     108  UNL108      0.1146
    431 H          -0.3010   37.0900   10.1457 H     108  UNL108      0.1146
    432 H          -0.5391   35.5303   10.5453 H     108  UNL108      0.1146
    433 N          -1.0266   36.4004   12.9773 N.3   109  UNL109     -0.3437
    434 H          -1.4683   36.6910   13.8484 H     109  UNL109      0.1146
    435 H          -0.3010   37.0900   12.7866 H     109  UNL109      0.1146
    436 H          -0.5391   35.5303   13.1862 H     109  UNL109      0.1146
    437 N          -1.0266   36.4004   15.6181 N.3   110  UNL110     -0.3437
    438 H          -1.4683   36.6910   16.4892 H     110  UNL110      0.1146
    439 H          -0.3010   37.0900   15.4274 H     110  UNL110      0.1146
    440 H          -0.5391   35.5303   15.8270 H     110  UNL110      0.1146
    441 N          -1.0266   36.4004   18.2589 N.3   111  UNL111     -0.3437
    442 H          -1.4683   36.6910   19.1300 H     111  UNL111      0.1146
    443 H          -0.3010   37.0900   18.0682 H     111  UNL111      0.1146
    444 H          -0.5391   35.5303   18.4678 H     111  UNL111      0.1146
    445 N          -1.0266   36.4004   20.8997 N.3   112  UNL112     -0.3437
    446 H          -1.4683   36.6910   21.7708 H     112  UNL112      0.1146
    447 H          -0.3010   37.0900   20.7090 H     112  UNL112      0.1146
    448 H          -0.5391   35.5303   21.1086 H     112  UNL112      0.1146
    449 N          -1.0266   39.4423    0.1065 N.3   113  UNL113     -0.3437
    450 H          -1.4683   38.5705   -0.1820 H     113  UNL113      0.1146
    451 H          -0.3010   39.1824    0.7731 H     113  UNL113      0.1146
    452 H          -0.5391   39.7956   -0.7156 H     113  UNL113      0.1146
    453 N          -1.0266   39.4423    2.7473 N.3   114  UNL114     -0.3437
    454 H          -1.4683   38.5705    2.4588 H     114  UNL114      0.1146
    455 H          -0.3010   39.1824    3.4139 H     114  UNL114      0.1146
    456 H          -0.5391   39.7956    1.9252 H     114  UNL114      0.1146
    457 N          -1.0266   39.4423    5.3881 N.3   115  UNL115     -0.3437
    458 H          -1.4683   38.5705    5.0996 H     115  UNL115      0.1146
    459 H          -0.3010   39.1824    6.0547 H     115  UNL115      0.1146
    460 H          -0.5391   39.7956    4.5660 H     115  UNL115      0.1146
    461 N          -1.0266   39.4423    8.0289 N.3   116  UNL116     -0.3437
    462 H          -1.4683   38.5705    7.7404 H     116  UNL116      0.1146
    463 H          -0.3010   39.1824    8.6955 H     116  UNL116      0.1146
    464 H          -0.5391   39.7956    7.2068 H     116  UNL116      0.1146
    465 N          -1.0266   39.2202   10.3364 N.3   117  UNL117     -0.3437
    466 H          -1.4683   39.5108   11.2075 H     117  UNL117      0.1146
    467 H          -0.3010   39.9098   10.1457 H     117  UNL117      0.1146
    468 H          -0.5391   38.3501   10.5453 H     117  UNL117      0.1146
    469 N          -1.0266   39.2202   12.9773 N.3   118  UNL118     -0.3437
    470 H          -1.4683   39.5108   13.8484 H     118  UNL118      0.1146
    471 H          -0.3010   39.9098   12.7866 H     118  UNL118      0.1146
    472 H          -0.5391   38.3501   13.1862 H     118  UNL118      0.1146
    473 N          -1.0266   39.2202   15.6181 N.3   119  UNL119     -0.3437
    474 H          -1.4683   39.5108   16.4892 H     119  UNL119      0.1146
    475 H          -0.3010   39.9098   15.4274 H     119  UNL119      0.1146
    476 H          -0.5391   38.3501   15.8270 H     119  UNL119      0.1146
    477 N          -1.0266   39.2202   18.2589 N.3   120  UNL120     -0.3437
    478 H          -1.4683   39.5108   19.1300 H     120  UNL120      0.1146
    479 H          -0.3010   39.9098   18.0682 H     120  UNL120      0.1146
    480 H          -0.5391   38.3501   18.4678 H     120  UNL120      0.1146
    481 N          -1.0266   39.2202   20.8997 N.3   121  UNL121     -0.3437
    482 H          -1.4683   39.5108   21.7708 H     121  UNL121      0.1146
    483 H          -0.3010   39.9098   20.7090 H     121  UNL121      0.1146
    484 H          -0.5391   38.3501   21.1086 H     121  UNL121      0.1146
    485 N           1.5051   -0.2567   -0.2269 N.3   122  UNL122     -0.3437
    486 H           1.0634    0.0339    0.6442 H     122  UNL122      0.1146
    487 H           2.2307    0.4329   -0.4176 H     122  UNL122      0.1146
    488 H           1.9926   -1.1268   -0.0180 H     122  UNL122      0.1146
    489 N           1.5051   -0.2567    2.4140 N.3   123  UNL123     -0.3437
    490 H           1.0634    0.0339    3.2851 H     123  UNL123      0.1146
    491 H           2.2307    0.4329    2.2233 H     123  UNL123      0.1146
    492 H           1.9926   -1.1268    2.6229 H     123  UNL123      0.1146
    493 N           1.5051   -0.2567    5.0548 N.3   124  UNL124     -0.3437
    494 H           1.0634    0.0339    5.9259 H     124  UNL124      0.1146
    495 H           2.2307    0.4329    4.8641 H     124  UNL124      0.1146
    496 H           1.9926   -1.1268    5.2637 H     124  UNL124      0.1146
    497 N           1.5051   -0.2567    7.6956 N.3   125  UNL125     -0.3437
    498 H           1.0634    0.0339    8.5667 H     125  UNL125      0.1146
    499 H           2.2307    0.4329    7.5049 H     125  UNL125      0.1146
    500 H           1.9926   -1.1268    7.9045 H     125  UNL125      0.1146
    501 N           1.5051   -0.2567   10.3364 N.3   126  UNL126     -0.3437
    502 H           1.0634    0.0339   11.2075 H     126  UNL126      0.1146
    503 H           2.2307    0.4329   10.1457 H     126  UNL126      0.1146
    504 H           1.9926   -1.1268   10.5453 H     126  UNL126      0.1146
    505 N           1.5051   -0.2567   12.9773 N.3   127  UNL127     -0.3437
    506 H           1.0634    0.0339   13.8484 H     127  UNL127      0.1146
    507 H           2.2307    0.4329   12.7866 H     127  UNL127      0.1146
    508 H           1.9926   -1.1268   13.1862 H     127  UNL127      0.1146
    509 N           1.5051   -0.2567   15.6181 N.3   128  UNL128     -0.3437
    510 H           1.0634    0.0339   16.4892 H     128  UNL128      0.1146
    511 H           2.2307    0.4329   15.4274 H     128  UNL128      0.1146
    512 H           1.9926   -1.1268   15.8270 H     128  UNL128      0.1146
    513 N           1.5051   -0.2567   18.2589 N.3   129  UNL129     -0.3437
    514 H           1.0634    0.0339   19.1300 H     129  UNL129      0.1146
    515 H           2.2307    0.4329   18.0682 H     129  UNL129      0.1146
    516 H           1.9926   -1.1268   18.4678 H     129  UNL129      0.1146
    517 N           1.5051   -0.2567   20.8997 N.3   130  UNL130     -0.3437
    518 H           1.0634    0.0339   21.7708 H     130  UNL130      0.1146
    519 H           2.2307    0.4329   20.7090 H     130  UNL130      0.1146
    520 H           1.9926   -1.1268   21.1086 H     130  UNL130      0.1146
    521 N           1.5051    2.5631   -0.2269 N.3   131  UNL131     -0.3437
    522 H           1.0634    2.8537    0.6442 H     131  UNL131      0.1146
    523 H           2.2307    3.2527   -0.4176 H     131  UNL131      0.1146
    524 H           1.9926    1.6930   -0.0180 H     131  UNL131      0.1146
    525 N           1.5051    2.5631    2.4140 N.3   132  UNL132     -0.3437
    526 H           1.0634    2.8537    3.2851 H     132  UNL132      0.1146
    527 H           2.2307    3.2527    2.2233 H     132  UNL132      0.1146
    528 H           1.9926    1.6930    2.6229 H     132  UNL132      0.1146
    529 N           1.5051    2.5631    5.0548 N.3   133  UNL133     -0.3437
    530 H           1.0634    2.8537    5.9259 H     133  UNL133      0.1146
    531 H           2.2307    3.2527    4.8641 H     133  UNL133      0.1146
    532 H           1.9926    1.6930    5.2637 H     133  UNL133      0.1146
    533 N           1.5051    2.5631    7.6956 N.3   134  UNL134     -0.3437
    534 H           1.0634    2.8537    8.5667 H     134  UNL134      0.1146
    535 H           2.2307    3.2527    7.5049 H     134  UNL134      0.1146
    536 H           1.9926    1.6930    7.9045 H     134  UNL134      0.1146
    537 N           1.5051    2.5631   10.3364 N.3   135  UNL135     -0.3437
    538 H           1.0634    2.8537   11.2075 H     135  UNL135      0.1146
    539 H           2.2307    3.2527   10.1457 H     135  UNL135      0.1146
    540 H           1.9926    1.6930   10.5453 H     135  UNL135      0.1146
    541 N           1.5051    2.5631   12.9773 N.3   136  UNL136     -0.3437
    542 H           1.0634    2.8537   13.8484 H     136  UNL136      0.1146
    543 H           2.2307    3.2527   12.7866 H     136  UNL136      0.1146
    544 H           1.9926    1.6930   13.1862 H     136  UNL136      0.1146
    545 N           1.5051    2.5631   15.6181 N.3   137  UNL137     -0.3437
    546 H           1.0634    2.8537   16.4892 H     137  UNL137      0.1146
    547 H           2.2307    3.2527   15.4274 H     137  UNL137      0.1146
    548 H           1.9926    1.6930   15.8270 H     137  UNL137      0.1146
    549 N           1.5051    2.5631   18.2589 N.3   138  UNL138     -0.3437
    550 H           1.0634    2.8537   19.1300 H     138  UNL138      0.1146
    551 H           2.2307    3.2527   18.0682 H     138  UNL138      0.1146
    552 H           1.9926    1.6930   18.4678 H     138  UNL138      0.1146
    553 N           1.5051    2.7852   21.2331 N.3   139  UNL139     -0.3437
    554 H           1.0634    1.9134   20.9446 H     139  UNL139      0.1146
    555 H           2.2307    2.5253   21.8997 H     139  UNL139      0.1146
    556 H           1.9926    3.1385   20.4110 H     139  UNL139      0.1146
    557 N           1.5051    5.6050    0.1065 N.3   140  UNL140     -0.3437
    558 H           1.0634    4.7332   -0.1820 H     140  UNL140      0.1146
    559 H           2.2307    5.3450    0.7731 H     140  UNL140      0.1146
    560 H           1.9926    5.9583   -0.7156 H     140  UNL140      0.1146
    561 N           1.5051    5.6050    2.7473 N.3   141  UNL141     -0.3437
    562 H           1.0634    4.7332    2.4588 H     141  UNL141      0.1146
    563 H           2.2307    5.3450    3.4139 H     141  UNL141      0.1146
    564 H           1.9926    5.9583    1.9252 H     141  UNL141      0.1146
    565 N           1.5051    5.6050    5.3881 N.3   142  UNL142     -0.3437
    566 H           1.0634    4.7332    5.0996 H     142  UNL142      0.1146
    567 H           2.2307    5.3450    6.0547 H     142  UNL142      0.1146
    568 H           1.9926    5.9583    4.5660 H     142  UNL142      0.1146
    569 N           1.5051    5.6050    8.0289 N.3   143  UNL143     -0.3437
    570 H           1.0634    4.7332    7.7404 H     143  UNL143      0.1146
    571 H           2.2307    5.3450    8.6955 H     143  UNL143      0.1146
    572 H           1.9926    5.9583    7.2068 H     143  UNL143      0.1146
    573 N           1.5051    5.3829   10.3364 N.3   144  UNL144     -0.3437
    574 H           1.0634    5.6735   11.2075 H     144  UNL144      0.1146
    575 H           2.2307    6.0725   10.1457 H     144  UNL144      0.1146
    576 H           1.9926    4.5128   10.5453 H     144  UNL144      0.1146
    577 N           1.5051    5.3829   12.9773 N.3   145  UNL145     -0.3437
    578 H           1.0634    5.6735   13.8484 H     145  UNL145      0.1146
    579 H           2.2307    6.0725   12.7866 H     145  UNL145      0.1146
    580 H           1.9926    4.5128   13.1862 H     145  UNL145      0.1146
    581 N           1.5051    5.3829   15.6181 N.3   146  UNL146     -0.3437
    582 H           1.0634    5.6735   16.4892 H     146  UNL146      0.1146
    583 H           2.2307    6.0725   15.4274 H     146  UNL146      0.1146
    584 H           1.9926    4.5128   15.8270 H     146  UNL146      0.1146
    585 N           1.5051    5.3829   18.2589 N.3   147  UNL147     -0.3437
    586 H           1.0634    5.6735   19.1300 H     147  UNL147      0.1146
    587 H           2.2307    6.0725   18.0682 H     147  UNL147      0.1146
    588 H           1.9926    4.5128   18.4678 H     147  UNL147      0.1146
    589 N           1.5051    5.3829   20.8997 N.3   148  UNL148     -0.3437
    590 H           1.0634    5.6735   21.7708 H     148  UNL148      0.1146
    591 H           2.2307    6.0725   20.7090 H     148  UNL148      0.1146
    592 H           1.9926    4.5128   21.1086 H     148  UNL148      0.1146
    593 N           1.5051    8.2026   -0.2269 N.3   149  UNL149     -0.3437
    594 H           1.0634    8.4932    0.6442 H     149  UNL149      0.1146
    595 H           2.2307    8.8922   -0.4176 H     149  UNL149      0.1146
    596 H           1.9926    7.3325   -0.0180 H     149  UNL149      0.1146
    597 N           1.5051    8.2026    2.4140 N.3   150  UNL150     -0.3437
    598 H           1.0634    8.4932    3.2851 H     150  UNL150      0.1146
    599 H           2.2307    8.8922    2.2233 H     150  UNL150      0.1146
    600 H           1.9926    7.3325    2.6229 H     150  UNL150      0.1146
    601 N           1.5051    8.2026    5.0548 N.3   151  UNL151     -0.3437
    602 H           1.0634    8.4932    5.9259 H     151  UNL151      0.1146
    603 H           2.2307    8.8922    4.8641 H     151  UNL151      0.1146
    604 H           1.9926    7.3325    5.2637 H     151  UNL151      0.1146
    605 N           1.5051    8.2026    7.6956 N.3   152  UNL152     -0.3437
    606 H           1.0634    8.4932    8.5667 H     152  UNL152      0.1146
    607 H           2.2307    8.8922    7.5049 H     152  UNL152      0.1146
    608 H           1.9926    7.3325    7.9045 H     152  UNL152      0.1146
    609 N          -0.4949    8.2026   10.3364 N.3   153  UNL153     -0.3437
    610 H          -0.9366    8.4932   11.2075 H     153  UNL153      0.1146
    611 H           0.2307    8.8922   10.1457 H     153  UNL153      0.1146
    612 H          -0.0074    7.3325   10.5453 H     153  UNL153      0.1146
    613 N           1.6353    8.2026   13.4871 N.3   154  UNL154     -0.3437
    614 H           2.5975    8.4932   13.3197 H     154  UNL154      0.1146
    615 H           1.0483    8.8922   13.0199 H     154  UNL154      0.1146
    616 H           1.5109    7.3325   12.9716 H     154  UNL154      0.1146
    617 N           1.5051    8.2026   15.6181 N.3   155  UNL155     -0.3437
    618 H           1.0634    8.4932   16.4892 H     155  UNL155      0.1146
    619 H           2.2307    8.8922   15.4274 H     155  UNL155      0.1146
    620 H           1.9926    7.3325   15.8270 H     155  UNL155      0.1146
    621 N           1.5051    8.2026   18.2589 N.3   156  UNL156     -0.3437
    622 H           1.0634    8.4932   19.1300 H     156  UNL156      0.1146
    623 H           2.2307    8.8922   18.0682 H     156  UNL156      0.1146
    624 H           1.9926    7.3325   18.4678 H     156  UNL156      0.1146
    625 N           1.5051    8.2026   20.8997 N.3   157  UNL157     -0.3437
    626 H           1.0634    8.4932   21.7708 H     157  UNL157      0.1146
    627 H           2.2307    8.8922   20.7090 H     157  UNL157      0.1146
    628 H           1.9926    7.3325   21.1086 H     157  UNL157      0.1146
    629 N           1.5051   11.2445    0.1065 N.3   158  UNL158     -0.3437
    630 H           1.0634   10.3727   -0.1820 H     158  UNL158      0.1146
    631 H           2.2307   10.9846    0.7731 H     158  UNL158      0.1146
    632 H           1.9926   11.5979   -0.7156 H     158  UNL158      0.1146
    633 N          -0.3647   11.0224    2.9238 N.3   159  UNL159     -0.3437
    634 H           0.5975   11.3130    2.7564 H     159  UNL159      0.1146
    635 H          -0.9517   11.7120    2.4566 H     159  UNL159      0.1146
    636 H          -0.4891   10.1523    2.4083 H     159  UNL159      0.1146
    637 N           1.5051   11.2445    5.3881 N.3   160  UNL160     -0.3437
    638 H           1.0634   10.3727    5.0996 H     160  UNL160      0.1146
    639 H           2.2307   10.9846    6.0547 H     160  UNL160      0.1146
    640 H           1.9926   11.5979    4.5660 H     160  UNL160      0.1146
    641 N           1.5051   11.2445    8.0289 N.3   161  UNL161     -0.3437
    642 H           1.0634   10.3727    7.7404 H     161  UNL161      0.1146
    643 H           2.2307   10.9846    8.6955 H     161  UNL161      0.1146
    644 H           1.9926   11.5979    7.2068 H     161  UNL161      0.1146
    645 N           1.5051   11.0224   10.3364 N.3   162  UNL162     -0.3437
    646 H           1.0634   11.3130   11.2075 H     162  UNL162      0.1146
    647 H           2.2307   11.7120   10.1457 H     162  UNL162      0.1146
    648 H           1.9926   10.1523   10.5453 H     162  UNL162      0.1146
    649 N           1.5051   11.0224   12.9773 N.3   163  UNL163     -0.3437
    650 H           1.0634   11.3130   13.8484 H     163  UNL163      0.1146
    651 H           2.2307   11.7120   12.7866 H     163  UNL163      0.1146
    652 H           1.9926   10.1523   13.1862 H     163  UNL163      0.1146
    653 N           1.7117   11.2378   15.6126 N.3   164  UNL164     -0.3437
    654 H           1.0903   11.5607   16.3528 H     164  UNL164      0.1146
    655 H           2.6179   11.0855   16.0532 H     164  UNL164      0.1146
    656 H           1.3721   10.3157   15.3430 H     164  UNL164      0.1146
    657 N           1.5051   11.2445   18.5922 N.3   165  UNL165     -0.3437
    658 H           1.0634   10.3727   18.3037 H     165  UNL165      0.1146
    659 H           2.2307   10.9846   19.2588 H     165  UNL165      0.1146
    660 H           1.9926   11.5979   17.7701 H     165  UNL165      0.1146
    661 N           1.5051   11.2445   21.2331 N.3   166  UNL166     -0.3437
    662 H           1.0634   10.3727   20.9446 H     166  UNL166      0.1146
    663 H           2.2307   10.9846   21.8997 H     166  UNL166      0.1146
    664 H           1.9926   11.5979   20.4110 H     166  UNL166      0.1146
    665 N           1.5051   14.0643    0.1065 N.3   167  UNL167     -0.3437
    666 H           1.0634   13.1925   -0.1820 H     167  UNL167      0.1146
    667 H           2.2307   13.8044    0.7731 H     167  UNL167      0.1146
    668 H           1.9926   14.4176   -0.7156 H     167  UNL167      0.1146
    669 N           1.5051   14.0643    2.7473 N.3   168  UNL168     -0.3437
    670 H           1.0634   13.1925    2.4588 H     168  UNL168      0.1146
    671 H           2.2307   13.8044    3.4139 H     168  UNL168      0.1146
    672 H           1.9926   14.4176    1.9252 H     168  UNL168      0.1146
    673 N           1.5051   14.0643    5.3881 N.3   169  UNL169     -0.3437
    674 H           1.0634   13.1925    5.0996 H     169  UNL169      0.1146
    675 H           2.2307   13.8044    6.0547 H     169  UNL169      0.1146
    676 H           1.9926   14.4176    4.5660 H     169  UNL169      0.1146
    677 N           1.5051   14.0643    8.0289 N.3   170  UNL170     -0.3437
    678 H           1.0634   13.1925    7.7404 H     170  UNL170      0.1146
    679 H           2.2307   13.8044    8.6955 H     170  UNL170      0.1146
    680 H           1.9926   14.4176    7.2068 H     170  UNL170      0.1146
    681 N           1.5051   13.8422   10.3364 N.3   171  UNL171     -0.3437
    682 H           1.0634   14.1328   11.2075 H     171  UNL171      0.1146
    683 H           2.2307   14.5318   10.1457 H     171  UNL171      0.1146
    684 H           1.9926   12.9721   10.5453 H     171  UNL171      0.1146
    685 N          -0.4949   13.8422   12.9773 N.3   172  UNL172     -0.3437
    686 H          -0.9366   14.1328   13.8484 H     172  UNL172      0.1146
    687 H           0.2307   14.5318   12.7866 H     172  UNL172      0.1146
    688 H          -0.0074   12.9721   13.1862 H     172  UNL172      0.1146
    689 N          -0.4949   13.8422   15.6181 N.3   173  UNL173     -0.3437
    690 H          -0.9366   14.1328   16.4892 H     173  UNL173      0.1146
    691 H           0.2307   14.5318   15.4274 H     173  UNL173      0.1146
    692 H          -0.0074   12.9721   15.8270 H     173  UNL173      0.1146
    693 N           1.5051   14.0643   18.5922 N.3   174  UNL174     -0.3437
    694 H           1.0634   13.1925   18.3037 H     174  UNL174      0.1146
    695 H           2.2307   13.8044   19.2588 H     174  UNL174      0.1146
    696 H           1.9926   14.4176   17.7701 H     174  UNL174      0.1146
    697 N           1.5051   14.0643   21.2331 N.3   175  UNL175     -0.3437
    698 H           1.0634   13.1925   20.9446 H     175  UNL175      0.1146
    699 H           2.2307   13.8044   21.8997 H     175  UNL175      0.1146
    700 H           1.9926   14.4176   20.4110 H     175  UNL175      0.1146
    701 N          -0.2883   16.8774    2.4085 N.3   176  UNL176     -0.3437
    702 H          -0.9097   17.2002    3.1487 H     176  UNL176      0.1146
    703 H           0.6179   16.7250    2.8491 H     176  UNL176      0.1146
    704 H          -0.6279   15.9553    2.1388 H     176  UNL176      0.1146
    705 N          -0.4949   16.6619    7.0548 N.3   177  UNL177     -0.3437
    706 H          -0.9366   16.9525    7.9259 H     177  UNL177      0.1146
    707 H           0.2307   17.3516    6.8641 H     177  UNL177      0.1146
    708 H          -0.0074   15.7919    7.2637 H     177  UNL177      0.1146
    709 N           1.7423   16.4708    7.7240 N.3   178  UNL178     -0.3437
    710 H           0.7979   16.4728    8.1066 H     178  UNL178      0.1146
    711 H           1.8820   17.3940    7.3158 H     178  UNL178      0.1146
    712 H           2.3698   16.4203    8.5254 H     178  UNL178      0.1146
    713 N           1.5051   16.6619   10.3364 N.3   179  UNL179     -0.3437
    714 H           1.0634   16.9525   11.2075 H     179  UNL179      0.1146
    715 H           2.2307   17.3516   10.1457 H     179  UNL179      0.1146
    716 H           1.9926   15.7919   10.5453 H     179  UNL179      0.1146
    717 N           1.5051   16.6619   12.9773 N.3   180  UNL180     -0.3437
    718 H           1.0634   16.9525   13.8484 H     180  UNL180      0.1146
    719 H           2.2307   17.3516   12.7866 H     180  UNL180      0.1146
    720 H           1.9926   15.7919   13.1862 H     180  UNL180      0.1146
    721 N           1.5051   16.6619   15.6181 N.3   181  UNL181     -0.3437
    722 H           1.0634   16.9525   16.4892 H     181  UNL181      0.1146
    723 H           2.2307   17.3516   15.4274 H     181  UNL181      0.1146
    724 H           1.9926   15.7919   15.8270 H     181  UNL181      0.1146
    725 N           1.5051   16.8841   18.5922 N.3   182  UNL182     -0.3437
    726 H           1.0634   16.0123   18.3037 H     182  UNL182      0.1146
    727 H           2.2307   16.6241   19.2588 H     182  UNL182      0.1146
    728 H           1.9926   17.2374   17.7701 H     182  UNL182      0.1146
    729 N           1.5051   16.8841   21.2331 N.3   183  UNL183     -0.3437
    730 H           1.0634   16.0123   20.9446 H     183  UNL183      0.1146
    731 H           2.2307   16.6241   21.8997 H     183  UNL183      0.1146
    732 H           1.9926   17.2374   20.4110 H     183  UNL183      0.1146
    733 N           1.5051   19.7038    0.1065 N.3   184  UNL184     -0.3437
    734 H           1.0634   18.8320   -0.1820 H     184  UNL184      0.1146
    735 H           2.2307   19.4439    0.7731 H     184  UNL184      0.1146
    736 H           1.9926   20.0572   -0.7156 H     184  UNL184      0.1146
    737 N           1.5051   19.7038    2.7473 N.3   185  UNL185     -0.3437
    738 H           1.0634   18.8320    2.4588 H     185  UNL185      0.1146
    739 H           2.2307   19.4439    3.4139 H     185  UNL185      0.1146
    740 H           1.9926   20.0572    1.9252 H     185  UNL185      0.1146
    741 N           1.5051   19.7038    5.3881 N.3   186  UNL186     -0.3437
    742 H           1.0634   18.8320    5.0996 H     186  UNL186      0.1146
    743 H           2.2307   19.4439    6.0547 H     186  UNL186      0.1146
    744 H           1.9926   20.0572    4.5660 H     186  UNL186      0.1146
    745 N           1.5051   19.7038    8.0289 N.3   187  UNL187     -0.3437
    746 H           1.0634   18.8320    7.7404 H     187  UNL187      0.1146
    747 H           2.2307   19.4439    8.6955 H     187  UNL187      0.1146
    748 H           1.9926   20.0572    7.2068 H     187  UNL187      0.1146
    749 N           1.5051   19.4817   10.3364 N.3   188  UNL188     -0.3437
    750 H           1.0634   19.7723   11.2075 H     188  UNL188      0.1146
    751 H           2.2307   20.1713   10.1457 H     188  UNL188      0.1146
    752 H           1.9926   18.6116   10.5453 H     188  UNL188      0.1146
    753 N           1.7117   19.6971   12.9718 N.3   189  UNL189     -0.3437
    754 H           1.0903   20.0200   13.7120 H     189  UNL189      0.1146
    755 H           2.6179   19.5448   13.4124 H     189  UNL189      0.1146
    756 H           1.3721   18.7751   12.7021 H     189  UNL189      0.1146
    757 N           1.7117   19.6971   15.6126 N.3   190  UNL190     -0.3437
    758 H           1.0903   20.0200   16.3528 H     190  UNL190      0.1146
    759 H           2.6179   19.5448   16.0532 H     190  UNL190      0.1146
    760 H           1.3721   18.7751   15.3430 H     190  UNL190      0.1146
    761 N           1.5051   19.7038   18.5922 N.3   191  UNL191     -0.3437
    762 H           1.0634   18.8320   18.3037 H     191  UNL191      0.1146
    763 H           2.2307   19.4439   19.2588 H     191  UNL191      0.1146
    764 H           1.9926   20.0572   17.7701 H     191  UNL191      0.1146
    765 N           1.5051   19.7038   21.2331 N.3   192  UNL192     -0.3437
    766 H           1.0634   18.8320   20.9446 H     192  UNL192      0.1146
    767 H           2.2307   19.4439   21.8997 H     192  UNL192      0.1146
    768 H           1.9926   20.0572   20.4110 H     192  UNL192      0.1146
    769 N           1.5051   22.5236    0.1065 N.3   193  UNL193     -0.3437
    770 H           1.0634   21.6518   -0.1820 H     193  UNL193      0.1146
    771 H           2.2307   22.2637    0.7731 H     193  UNL193      0.1146
    772 H           1.9926   22.8770   -0.7156 H     193  UNL193      0.1146
    773 N          -0.3647   22.3015    2.9238 N.3   194  UNL194     -0.3437
    774 H           0.5975   22.5921    2.7564 H     194  UNL194      0.1146
    775 H          -0.9517   22.9911    2.4566 H     194  UNL194      0.1146
    776 H          -0.4891   21.4314    2.4083 H     194  UNL194      0.1146
    777 N           1.5051   22.5236    5.3881 N.3   195  UNL195     -0.3437
    778 H           1.0634   21.6518    5.0996 H     195  UNL195      0.1146
    779 H           2.2307   22.2637    6.0547 H     195  UNL195      0.1146
    780 H           1.9926   22.8770    4.5660 H     195  UNL195      0.1146
    781 N           1.5051   22.5236    8.0289 N.3   196  UNL196     -0.3437
    782 H           1.0634   21.6518    7.7404 H     196  UNL196      0.1146
    783 H           2.2307   22.2637    8.6955 H     196  UNL196      0.1146
    784 H           1.9926   22.8770    7.2068 H     196  UNL196      0.1146
    785 N           1.5051   22.3015   10.3364 N.3   197  UNL197     -0.3437
    786 H           1.0634   22.5921   11.2075 H     197  UNL197      0.1146
    787 H           2.2307   22.9911   10.1457 H     197  UNL197      0.1146
    788 H           1.9926   21.4314   10.5453 H     197  UNL197      0.1146
    789 N           1.5051   22.3015   12.9773 N.3   198  UNL198     -0.3437
    790 H           1.0634   22.5921   13.8484 H     198  UNL198      0.1146
    791 H           2.2307   22.9911   12.7866 H     198  UNL198      0.1146
    792 H           1.9926   21.4314   13.1862 H     198  UNL198      0.1146
    793 N           1.5051   22.3015   15.6181 N.3   199  UNL199     -0.3437
    794 H           1.0634   22.5921   16.4892 H     199  UNL199      0.1146
    795 H           2.2307   22.9911   15.4274 H     199  UNL199      0.1146
    796 H           1.9926   21.4314   15.8270 H     199  UNL199      0.1146
    797 N           1.5051   22.5236   18.5922 N.3   200  UNL200     -0.3437
    798 H           1.0634   21.6518   18.3037 H     200  UNL200      0.1146
    799 H           2.2307   22.2637   19.2588 H     200  UNL200      0.1146
    800 H           1.9926   22.8770   17.7701 H     200  UNL200      0.1146
    801 N          -0.2883   22.5169   20.8943 N.3   201  UNL201     -0.3437
    802 H          -0.9097   22.8398   21.6345 H     201  UNL201      0.1146
    803 H           0.6179   22.3646   21.3348 H     201  UNL201      0.1146
    804 H          -0.6279   21.5948   20.6246 H     201  UNL201      0.1146
    805 N           1.5051   25.3434    0.1065 N.3   202  UNL202     -0.3437
    806 H           1.0634   24.4716   -0.1820 H     202  UNL202      0.1146
    807 H           2.2307   25.0835    0.7731 H     202  UNL202      0.1146
    808 H           1.9926   25.6967   -0.7156 H     202  UNL202      0.1146
    809 N           1.5051   25.3434    2.7473 N.3   203  UNL203     -0.3437
    810 H           1.0634   24.4716    2.4588 H     203  UNL203      0.1146
    811 H           2.2307   25.0835    3.4139 H     203  UNL203      0.1146
    812 H           1.9926   25.6967    1.9252 H     203  UNL203      0.1146
    813 N           1.5051   25.3434    5.3881 N.3   204  UNL204     -0.3437
    814 H           1.0634   24.4716    5.0996 H     204  UNL204      0.1146
    815 H           2.2307   25.0835    6.0547 H     204  UNL204      0.1146
    816 H           1.9926   25.6967    4.5660 H     204  UNL204      0.1146
    817 N           1.5051   25.3434    8.0289 N.3   205  UNL205     -0.3437
    818 H           1.0634   24.4716    7.7404 H     205  UNL205      0.1146
    819 H           2.2307   25.0835    8.6955 H     205  UNL205      0.1146
    820 H           1.9926   25.6967    7.2068 H     205  UNL205      0.1146
    821 N           1.5051   25.3434   10.6698 N.3   206  UNL206     -0.3437
    822 H           1.0634   24.4716   10.3813 H     206  UNL206      0.1146
    823 H           2.2307   25.0835   11.3364 H     206  UNL206      0.1146
    824 H           1.9926   25.6967    9.8477 H     206  UNL206      0.1146
    825 N           1.5051   25.3434   13.3106 N.3   207  UNL207     -0.3437
    826 H           1.0634   24.4716   13.0221 H     207  UNL207      0.1146
    827 H           2.2307   25.0835   13.9772 H     207  UNL207      0.1146
    828 H           1.9926   25.6967   12.4885 H     207  UNL207      0.1146
    829 N           1.5051   25.3434   15.9514 N.3   208  UNL208     -0.3437
    830 H           1.0634   24.4716   15.6629 H     208  UNL208      0.1146
    831 H           2.2307   25.0835   16.6180 H     208  UNL208      0.1146
    832 H           1.9926   25.6967   15.1293 H     208  UNL208      0.1146
    833 N           1.5051   25.3434   18.5922 N.3   209  UNL209     -0.3437
    834 H           1.0634   24.4716   18.3037 H     209  UNL209      0.1146
    835 H           2.2307   25.0835   19.2588 H     209  UNL209      0.1146
    836 H           1.9926   25.6967   17.7701 H     209  UNL209      0.1146
    837 N           1.5051   25.3434   21.2331 N.3   210  UNL210     -0.3437
    838 H           1.0634   24.4716   20.9446 H     210  UNL210      0.1146
    839 H           2.2307   25.0835   21.8997 H     210  UNL210      0.1146
    840 H           1.9926   25.6967   20.4110 H     210  UNL210      0.1146
    841 N           1.5051   27.9410    0.4140 N.3   211  UNL211     -0.3437
    842 H           1.0634   28.2316    1.2851 H     211  UNL211      0.1146
    843 H           2.2307   28.6306    0.2233 H     211  UNL211      0.1146
    844 H           1.9926   27.0709    0.6229 H     211  UNL211      0.1146
    845 N           1.5051   27.9410    3.0548 N.3   212  UNL212     -0.3437
    846 H           1.0634   28.2316    3.9259 H     212  UNL212      0.1146
    847 H           2.2307   28.6306    2.8641 H     212  UNL212      0.1146
    848 H           1.9926   27.0709    3.2637 H     212  UNL212      0.1146
    849 N           1.5051   27.9410    5.6956 N.3   213  UNL213     -0.3437
    850 H           1.0634   28.2316    6.5667 H     213  UNL213      0.1146
    851 H           2.2307   28.6306    5.5049 H     213  UNL213      0.1146
    852 H           1.9926   27.0709    5.9045 H     213  UNL213      0.1146
    853 N           1.5051   27.9410    8.3364 N.3   214  UNL214     -0.3437
    854 H           1.0634   28.2316    9.2075 H     214  UNL214      0.1146
    855 H           2.2307   28.6306    8.1457 H     214  UNL214      0.1146
    856 H           1.9926   27.0709    8.5453 H     214  UNL214      0.1146
    857 N           1.5051   27.9410   10.9773 N.3   215  UNL215     -0.3437
    858 H           1.0634   28.2316   11.8484 H     215  UNL215      0.1146
    859 H           2.2307   28.6306   10.7866 H     215  UNL215      0.1146
    860 H           1.9926   27.0709   11.1862 H     215  UNL215      0.1146
    861 N           1.5051   27.9410   13.6181 N.3   216  UNL216     -0.3437
    862 H           1.0634   28.2316   14.4892 H     216  UNL216      0.1146
    863 H           2.2307   28.6306   13.4274 H     216  UNL216      0.1146
    864 H           1.9926   27.0709   13.8270 H     216  UNL216      0.1146
    865 N           1.5051   27.9410   16.2589 N.3   217  UNL217     -0.3437
    866 H           1.0634   28.2316   17.1300 H     217  UNL217      0.1146
    867 H           2.2307   28.6306   16.0682 H     217  UNL217      0.1146
    868 H           1.9926   27.0709   16.4678 H     217  UNL217      0.1146
    869 N           1.5051   27.9410   18.8997 N.3   218  UNL218     -0.3437
    870 H           1.0634   28.2316   19.7708 H     218  UNL218      0.1146
    871 H           2.2307   28.6306   18.7090 H     218  UNL218      0.1146
    872 H           1.9926   27.0709   19.1086 H     218  UNL218      0.1146
    873 N           1.5051   27.9410   21.5406 N.3   219  UNL219     -0.3437
    874 H           1.0634   28.2316   22.4117 H     219  UNL219      0.1146
    875 H           2.2307   28.6306   21.3499 H     219  UNL219      0.1146
    876 H           1.9926   27.0709   21.7495 H     219  UNL219      0.1146
    877 N           1.5051   30.7608   -0.2269 N.3   220  UNL220     -0.3437
    878 H           1.0634   31.0514    0.6442 H     220  UNL220      0.1146
    879 H           2.2307   31.4504   -0.4176 H     220  UNL220      0.1146
    880 H           1.9926   29.8907   -0.0180 H     220  UNL220      0.1146
    881 N           1.5051   30.7608    2.4140 N.3   221  UNL221     -0.3437
    882 H           1.0634   31.0514    3.2851 H     221  UNL221      0.1146
    883 H           2.2307   31.4504    2.2233 H     221  UNL221      0.1146
    884 H           1.9926   29.8907    2.6229 H     221  UNL221      0.1146
    885 N           1.5051   30.7608    5.0548 N.3   222  UNL222     -0.3437
    886 H           1.0634   31.0514    5.9259 H     222  UNL222      0.1146
    887 H           2.2307   31.4504    4.8641 H     222  UNL222      0.1146
    888 H           1.9926   29.8907    5.2637 H     222  UNL222      0.1146
    889 N           1.5051   30.7608    7.6956 N.3   223  UNL223     -0.3437
    890 H           1.0634   31.0514    8.5667 H     223  UNL223      0.1146
    891 H           2.2307   31.4504    7.5049 H     223  UNL223      0.1146
    892 H           1.9926   29.8907    7.9045 H     223  UNL223      0.1146
    893 N          -0.4949   30.7608   10.3364 N.3   224  UNL224     -0.3437
    894 H          -0.9366   31.0514   11.2075 H     224  UNL224      0.1146
    895 H           0.2307   31.4504   10.1457 H     224  UNL224      0.1146
    896 H          -0.0074   29.8907   10.5453 H     224  UNL224      0.1146
    897 N           1.5051   30.7608   12.9773 N.3   225  UNL225     -0.3437
    898 H           1.0634   31.0514   13.8484 H     225  UNL225      0.1146
    899 H           2.2307   31.4504   12.7866 H     225  UNL225      0.1146
    900 H           1.9926   29.8907   13.1862 H     225  UNL225      0.1146
    901 N           1.5051   30.7608   15.6181 N.3   226  UNL226     -0.3437
    902 H           1.0634   31.0514   16.4892 H     226  UNL226      0.1146
    903 H           2.2307   31.4504   15.4274 H     226  UNL226      0.1146
    904 H           1.9926   29.8907   15.8270 H     226  UNL226      0.1146
    905 N           1.5051   30.7608   18.2589 N.3   227  UNL227     -0.3437
    906 H           1.0634   31.0514   19.1300 H     227  UNL227      0.1146
    907 H           2.2307   31.4504   18.0682 H     227  UNL227      0.1146
    908 H           1.9926   29.8907   18.4678 H     227  UNL227      0.1146
    909 N           1.5051   30.7608   20.8997 N.3   228  UNL228     -0.3437
    910 H           1.0634   31.0514   21.7708 H     228  UNL228      0.1146
    911 H           2.2307   31.4504   20.7090 H     228  UNL228      0.1146
    912 H           1.9926   29.8907   21.1086 H     228  UNL228      0.1146
    913 N           1.5051   33.5806   -0.2269 N.3   229  UNL229     -0.3437
    914 H           1.0634   33.8712    0.6442 H     229  UNL229      0.1146
    915 H           2.2307   34.2702   -0.4176 H     229  UNL229      0.1146
    916 H           1.9926   32.7105   -0.0180 H     229  UNL229      0.1146
    917 N           1.5051   33.5806    2.4140 N.3   230  UNL230     -0.3437
    918 H           1.0634   33.8712    3.2851 H     230  UNL230      0.1146
    919 H           2.2307   34.2702    2.2233 H     230  UNL230      0.1146
    920 H           1.9926   32.7105    2.6229 H     230  UNL230      0.1146
    921 N           1.5051   33.5806    5.0548 N.3   231  UNL231     -0.3437
    922 H           1.0634   33.8712    5.9259 H     231  UNL231      0.1146
    923 H           2.2307   34.2702    4.8641 H     231  UNL231      0.1146
    924 H           1.9926   32.7105    5.2637 H     231  UNL231      0.1146
    925 N           1.5051   33.5806    7.6956 N.3   232  UNL232     -0.3437
    926 H           1.0634   33.8712    8.5667 H     232  UNL232      0.1146
    927 H           2.2307   34.2702    7.5049 H     232  UNL232      0.1146
    928 H           1.9926   32.7105    7.9045 H     232  UNL232      0.1146
    929 N           1.5051   33.5806   10.3364 N.3   233  UNL233     -0.3437
    930 H           1.0634   33.8712   11.2075 H     233  UNL233      0.1146
    931 H           2.2307   34.2702   10.1457 H     233  UNL233      0.1146
    932 H           1.9926   32.7105   10.5453 H     233  UNL233      0.1146
    933 N           1.5051   33.5806   12.9773 N.3   234  UNL234     -0.3437
    934 H           1.0634   33.8712   13.8484 H     234  UNL234      0.1146
    935 H           2.2307   34.2702   12.7866 H     234  UNL234      0.1146
    936 H           1.9926   32.7105   13.1862 H     234  UNL234      0.1146
    937 N           1.5051   33.5806   15.6181 N.3   235  UNL235     -0.3437
    938 H           1.0634   33.8712   16.4892 H     235  UNL235      0.1146
    939 H           2.2307   34.2702   15.4274 H     235  UNL235      0.1146
    940 H           1.9926   32.7105   15.8270 H     235  UNL235      0.1146
    941 N           1.5051   33.5806   18.2589 N.3   236  UNL236     -0.3437
    942 H           1.0634   33.8712   19.1300 H     236  UNL236      0.1146
    943 H           2.2307   34.2702   18.0682 H     236  UNL236      0.1146
    944 H           1.9926   32.7105   18.4678 H     236  UNL236      0.1146
    945 N           1.5051   33.5806   20.8997 N.3   237  UNL237     -0.3437
    946 H           1.0634   33.8712   21.7708 H     237  UNL237      0.1146
    947 H           2.2307   34.2702   20.7090 H     237  UNL237      0.1146
    948 H           1.9926   32.7105   21.1086 H     237  UNL237      0.1146
    949 N           1.7117   36.6158   -0.2323 N.3   238  UNL238     -0.3437
    950 H           1.0903   36.9386    0.5079 H     238  UNL238      0.1146
    951 H           2.6179   36.4635    0.2082 H     238  UNL238      0.1146
    952 H           1.3721   35.6937   -0.5020 H     238  UNL238      0.1146
    953 N           1.7117   36.6158    2.4085 N.3   239  UNL239     -0.3437
    954 H           1.0903   36.9386    3.1487 H     239  UNL239      0.1146
    955 H           2.6179   36.4635    2.8491 H     239  UNL239      0.1146
    956 H           1.3721   35.6937    2.1388 H     239  UNL239      0.1146
    957 N           1.7117   36.6158    5.0493 N.3   240  UNL240     -0.3437
    958 H           1.0903   36.9386    5.7895 H     240  UNL240      0.1146
    959 H           2.6179   36.4635    5.4899 H     240  UNL240      0.1146
    960 H           1.3721   35.6937    4.7797 H     240  UNL240      0.1146
    961 N           1.5051   36.4004    7.6956 N.3   241  UNL241     -0.3437
    962 H           1.0634   36.6910    8.5667 H     241  UNL241      0.1146
    963 H           2.2307   37.0900    7.5049 H     241  UNL241      0.1146
    964 H           1.9926   35.5303    7.9045 H     241  UNL241      0.1146
    965 N           1.5051   36.4004   10.3364 N.3   242  UNL242     -0.3437
    966 H           1.0634   36.6910   11.2075 H     242  UNL242      0.1146
    967 H           2.2307   37.0900   10.1457 H     242  UNL242      0.1146
    968 H           1.9926   35.5303   10.5453 H     242  UNL242      0.1146
    969 N           1.5051   36.4004   12.9773 N.3   243  UNL243     -0.3437
    970 H           1.0634   36.6910   13.8484 H     243  UNL243      0.1146
    971 H           2.2307   37.0900   12.7866 H     243  UNL243      0.1146
    972 H           1.9926   35.5303   13.1862 H     243  UNL243      0.1146
    973 N           1.5051   36.4004   15.6181 N.3   244  UNL244     -0.3437
    974 H           1.0634   36.6910   16.4892 H     244  UNL244      0.1146
    975 H           2.2307   37.0900   15.4274 H     244  UNL244      0.1146
    976 H           1.9926   35.5303   15.8270 H     244  UNL244      0.1146
    977 N           1.5051   36.4004   18.2589 N.3   245  UNL245     -0.3437
    978 H           1.0634   36.6910   19.1300 H     245  UNL245      0.1146
    979 H           2.2307   37.0900   18.0682 H     245  UNL245      0.1146
    980 H           1.9926   35.5303   18.4678 H     245  UNL245      0.1146
    981 N           1.5051   36.4004   20.8997 N.3   246  UNL246     -0.3437
    982 H           1.0634   36.6910   21.7708 H     246  UNL246      0.1146
    983 H           2.2307   37.0900   20.7090 H     246  UNL246      0.1146
    984 H           1.9926   35.5303   21.1086 H     246  UNL246      0.1146
    985 N           1.5051   39.4423    0.1065 N.3   247  UNL247     -0.3437
    986 H           1.0634   38.5705   -0.1820 H     247  UNL247      0.1146
    987 H           2.2307   39.1824    0.7731 H     247  UNL247      0.1146
    988 H           1.9926   39.7956   -0.7156 H     247  UNL247      0.1146
    989 N           1.5051   39.4423    2.7473 N.3   248  UNL248     -0.3437
    990 H           1.0634   38.5705    2.4588 H     248  UNL248      0.1146
    991 H           2.2307   39.1824    3.4139 H     248  UNL248      0.1146
    992 H           1.9926   39.7956    1.9252 H     248  UNL248      0.1146
    993 N           1.5051   39.4423    5.3881 N.3   249  UNL249     -0.3437
    994 H           1.0634   38.5705    5.0996 H     249  UNL249      0.1146
    995 H           2.2307   39.1824    6.0547 H     249  UNL249      0.1146
    996 H           1.9926   39.7956    4.5660 H     249  UNL249      0.1146
    997 N           1.5051   39.4423    8.0289 N.3   250  UNL250     -0.3437
    998 H           1.0634   38.5705    7.7404 H     250  UNL250      0.1146
    999 H           2.2307   39.1824    8.6955 H     250  UNL250      0.1146
   1000 H           1.9926   39.7956    7.2068 H     250  UNL250      0.1146
   1001 N           1.5051   39.2202   10.3364 N.3   251  UNL251     -0.3437
   1002 H           1.0634   39.5108   11.2075 H     251  UNL251      0.1146
   1003 H           2.2307   39.9098   10.1457 H     251  UNL251      0.1146
   1004 H           1.9926   38.3501   10.5453 H     251  UNL251      0.1146
   1005 N           1.5051   39.2202   12.9773 N.3   252  UNL252     -0.3437
   1006 H           1.0634   39.5108   13.8484 H     252  UNL252      0.1146
   1007 H           2.2307   39.9098   12.7866 H     252  UNL252      0.1146
   1008 H           1.9926   38.3501   13.1862 H     252  UNL252      0.1146
   1009 N           1.5051   39.2202   15.6181 N.3   253  UNL253     -0.3437
   1010 H           1.0634   39.5108   16.4892 H     253  UNL253      0.1146
   1011 H           2.2307   39.9098   15.4274 H     253  UNL253      0.1146
   1012 H           1.9926   38.3501   15.8270 H     253  UNL253      0.1146
   1013 N           1.5051   39.2202   18.2589 N.3   254  UNL254     -0.3437
   1014 H           1.0634   39.5108   19.1300 H     254  UNL254      0.1146
   1015 H           2.2307   39.9098   18.0682 H     254  UNL254      0.1146
   1016 H           1.9926   38.3501   18.4678 H     254  UNL254      0.1146
   1017 N           1.5051   39.2202   20.8997 N.3   255  UNL255     -0.3437
   1018 H           1.0634   39.5108   21.7708 H     255  UNL255      0.1146
   1019 H           2.2307   39.9098   20.7090 H     255  UNL255      0.1146
   1020 H           1.9926   38.3501   21.1086 H     255  UNL255      0.1146
   1021 N           4.0368   -0.2567   -0.2269 N.3   256  UNL256     -0.3437
   1022 H           3.5951    0.0339    0.6442 H     256  UNL256      0.1146
   1023 H           4.7624    0.4329   -0.4176 H     256  UNL256      0.1146
   1024 H           4.5243   -1.1268   -0.0180 H     256  UNL256      0.1146
   1025 N           4.0368   -0.2567    2.4140 N.3   257  UNL257     -0.3437
   1026 H           3.5951    0.0339    3.2851 H     257  UNL257      0.1146
   1027 H           4.7624    0.4329    2.2233 H     257  UNL257      0.1146
   1028 H           4.5243   -1.1268    2.6229 H     257  UNL257      0.1146
   1029 N           4.0368   -0.2567    5.0548 N.3   258  UNL258     -0.3437
   1030 H           3.5951    0.0339    5.9259 H     258  UNL258      0.1146
   1031 H           4.7624    0.4329    4.8641 H     258  UNL258      0.1146
   1032 H           4.5243   -1.1268    5.2637 H     258  UNL258      0.1146
   1033 N           4.0368   -0.2567    7.6956 N.3   259  UNL259     -0.3437
   1034 H           3.5951    0.0339    8.5667 H     259  UNL259      0.1146
   1035 H           4.7624    0.4329    7.5049 H     259  UNL259      0.1146
   1036 H           4.5243   -1.1268    7.9045 H     259  UNL259      0.1146
   1037 N           4.0368   -0.2567   10.3364 N.3   260  UNL260     -0.3437
   1038 H           3.5951    0.0339   11.2075 H     260  UNL260      0.1146
   1039 H           4.7624    0.4329   10.1457 H     260  UNL260      0.1146
   1040 H           4.5243   -1.1268   10.5453 H     260  UNL260      0.1146
   1041 N           4.0368   -0.2567   12.9773 N.3   261  UNL261     -0.3437
   1042 H           3.5951    0.0339   13.8484 H     261  UNL261      0.1146
   1043 H           4.7624    0.4329   12.7866 H     261  UNL261      0.1146
   1044 H           4.5243   -1.1268   13.1862 H     261  UNL261      0.1146
   1045 N           4.0368   -0.2567   15.6181 N.3   262  UNL262     -0.3437
   1046 H           3.5951    0.0339   16.4892 H     262  UNL262      0.1146
   1047 H           4.7624    0.4329   15.4274 H     262  UNL262      0.1146
   1048 H           4.5243   -1.1268   15.8270 H     262  UNL262      0.1146
   1049 N           4.0368   -0.2567   18.2589 N.3   263  UNL263     -0.3437
   1050 H           3.5951    0.0339   19.1300 H     263  UNL263      0.1146
   1051 H           4.7624    0.4329   18.0682 H     263  UNL263      0.1146
   1052 H           4.5243   -1.1268   18.4678 H     263  UNL263      0.1146
   1053 N           4.0368   -0.2567   20.8997 N.3   264  UNL264     -0.3437
   1054 H           3.5951    0.0339   21.7708 H     264  UNL264      0.1146
   1055 H           4.7624    0.4329   20.7090 H     264  UNL264      0.1146
   1056 H           4.5243   -1.1268   21.1086 H     264  UNL264      0.1146
   1057 N           4.0368    2.5631   -0.2269 N.3   265  UNL265     -0.3437
   1058 H           3.5951    2.8537    0.6442 H     265  UNL265      0.1146
   1059 H           4.7624    3.2527   -0.4176 H     265  UNL265      0.1146
   1060 H           4.5243    1.6930   -0.0180 H     265  UNL265      0.1146
   1061 N           4.0368    2.5631    2.4140 N.3   266  UNL266     -0.3437
   1062 H           3.5951    2.8537    3.2851 H     266  UNL266      0.1146
   1063 H           4.7624    3.2527    2.2233 H     266  UNL266      0.1146
   1064 H           4.5243    1.6930    2.6229 H     266  UNL266      0.1146
   1065 N           4.0368    2.5631    5.0548 N.3   267  UNL267     -0.3437
   1066 H           3.5951    2.8537    5.9259 H     267  UNL267      0.1146
   1067 H           4.7624    3.2527    4.8641 H     267  UNL267      0.1146
   1068 H           4.5243    1.6930    5.2637 H     267  UNL267      0.1146
   1069 N           4.0368    2.5631    7.6956 N.3   268  UNL268     -0.3437
   1070 H           3.5951    2.8537    8.5667 H     268  UNL268      0.1146
   1071 H           4.7624    3.2527    7.5049 H     268  UNL268      0.1146
   1072 H           4.5243    1.6930    7.9045 H     268  UNL268      0.1146
   1073 N           4.0368    2.5631   10.3364 N.3   269  UNL269     -0.3437
   1074 H           3.5951    2.8537   11.2075 H     269  UNL269      0.1146
   1075 H           4.7624    3.2527   10.1457 H     269  UNL269      0.1146
   1076 H           4.5243    1.6930   10.5453 H     269  UNL269      0.1146
   1077 N           4.0368    2.5631   12.9773 N.3   270  UNL270     -0.3437
   1078 H           3.5951    2.8537   13.8484 H     270  UNL270      0.1146
   1079 H           4.7624    3.2527   12.7866 H     270  UNL270      0.1146
   1080 H           4.5243    1.6930   13.1862 H     270  UNL270      0.1146
   1081 N           4.0368    2.5631   15.6181 N.3   271  UNL271     -0.3437
   1082 H           3.5951    2.8537   16.4892 H     271  UNL271      0.1146
   1083 H           4.7624    3.2527   15.4274 H     271  UNL271      0.1146
   1084 H           4.5243    1.6930   15.8270 H     271  UNL271      0.1146
   1085 N           4.0368    2.5631   18.2589 N.3   272  UNL272     -0.3437
   1086 H           3.5951    2.8537   19.1300 H     272  UNL272      0.1146
   1087 H           4.7624    3.2527   18.0682 H     272  UNL272      0.1146
   1088 H           4.5243    1.6930   18.4678 H     272  UNL272      0.1146
   1089 N           4.0368    2.7852   21.2331 N.3   273  UNL273     -0.3437
   1090 H           3.5951    1.9134   20.9446 H     273  UNL273      0.1146
   1091 H           4.7624    2.5253   21.8997 H     273  UNL273      0.1146
   1092 H           4.5243    3.1385   20.4110 H     273  UNL273      0.1146
   1093 N           4.0368    5.6050    0.1065 N.3   274  UNL274     -0.3437
   1094 H           3.5951    4.7332   -0.1820 H     274  UNL274      0.1146
   1095 H           4.7624    5.3450    0.7731 H     274  UNL274      0.1146
   1096 H           4.5243    5.9583   -0.7156 H     274  UNL274      0.1146
   1097 N           4.0368    5.6050    2.7473 N.3   275  UNL275     -0.3437
   1098 H           3.5951    4.7332    2.4588 H     275  UNL275      0.1146
   1099 H           4.7624    5.3450    3.4139 H     275  UNL275      0.1146
   1100 H           4.5243    5.9583    1.9252 H     275  UNL275      0.1146
   1101 N           4.0368    5.6050    5.3881 N.3   276  UNL276     -0.3437
   1102 H           3.5951    4.7332    5.0996 H     276  UNL276      0.1146
   1103 H           4.7624    5.3450    6.0547 H     276  UNL276      0.1146
   1104 H           4.5243    5.9583    4.5660 H     276  UNL276      0.1146
   1105 N           4.0368    5.6050    8.0289 N.3   277  UNL277     -0.3437
   1106 H           3.5951    4.7332    7.7404 H     277  UNL277      0.1146
   1107 H           4.7624    5.3450    8.6955 H     277  UNL277      0.1146
   1108 H           4.5243    5.9583    7.2068 H     277  UNL277      0.1146
   1109 N           4.0368    5.3829   10.3364 N.3   278  UNL278     -0.3437
   1110 H           3.5951    5.6735   11.2075 H     278  UNL278      0.1146
   1111 H           4.7624    6.0725   10.1457 H     278  UNL278      0.1146
   1112 H           4.5243    4.5128   10.5453 H     278  UNL278      0.1146
   1113 N           4.0368    5.3829   12.9773 N.3   279  UNL279     -0.3437
   1114 H           3.5951    5.6735   13.8484 H     279  UNL279      0.1146
   1115 H           4.7624    6.0725   12.7866 H     279  UNL279      0.1146
   1116 H           4.5243    4.5128   13.1862 H     279  UNL279      0.1146
   1117 N           4.0368    5.3829   15.6181 N.3   280  UNL280     -0.3437
   1118 H           3.5951    5.6735   16.4892 H     280  UNL280      0.1146
   1119 H           4.7624    6.0725   15.4274 H     280  UNL280      0.1146
   1120 H           4.5243    4.5128   15.8270 H     280  UNL280      0.1146
   1121 N           4.0368    5.3829   18.2589 N.3   281  UNL281     -0.3437
   1122 H           3.5951    5.6735   19.1300 H     281  UNL281      0.1146
   1123 H           4.7624    6.0725   18.0682 H     281  UNL281      0.1146
   1124 H           4.5243    4.5128   18.4678 H     281  UNL281      0.1146
   1125 N           4.0368    5.3829   20.8997 N.3   282  UNL282     -0.3437
   1126 H           3.5951    5.6735   21.7708 H     282  UNL282      0.1146
   1127 H           4.7624    6.0725   20.7090 H     282  UNL282      0.1146
   1128 H           4.5243    4.5128   21.1086 H     282  UNL282      0.1146
   1129 N           4.0368    8.2026   -0.2269 N.3   283  UNL283     -0.3437
   1130 H           3.5951    8.4932    0.6442 H     283  UNL283      0.1146
   1131 H           4.7624    8.8922   -0.4176 H     283  UNL283      0.1146
   1132 H           4.5243    7.3325   -0.0180 H     283  UNL283      0.1146
   1133 N           4.0368    8.2026    2.4140 N.3   284  UNL284     -0.3437
   1134 H           3.5951    8.4932    3.2851 H     284  UNL284      0.1146
   1135 H           4.7624    8.8922    2.2233 H     284  UNL284      0.1146
   1136 H           4.5243    7.3325    2.6229 H     284  UNL284      0.1146
   1137 N           4.0368    8.2026    5.0548 N.3   285  UNL285     -0.3437
   1138 H           3.5951    8.4932    5.9259 H     285  UNL285      0.1146
   1139 H           4.7624    8.8922    4.8641 H     285  UNL285      0.1146
   1140 H           4.5243    7.3325    5.2637 H     285  UNL285      0.1146
   1141 N           4.0368    8.2026    7.6956 N.3   286  UNL286     -0.3437
   1142 H           3.5951    8.4932    8.5667 H     286  UNL286      0.1146
   1143 H           4.7624    8.8922    7.5049 H     286  UNL286      0.1146
   1144 H           4.5243    7.3325    7.9045 H     286  UNL286      0.1146
   1145 N           2.0368    8.2026   10.3364 N.3   287  UNL287     -0.3437
   1146 H           1.5951    8.4932   11.2075 H     287  UNL287      0.1146
   1147 H           2.7624    8.8922   10.1457 H     287  UNL287      0.1146
   1148 H           2.5243    7.3325   10.5453 H     287  UNL287      0.1146
   1149 N           4.1670    8.2026   13.4871 N.3   288  UNL288     -0.3437
   1150 H           5.1292    8.4932   13.3197 H     288  UNL288      0.1146
   1151 H           3.5800    8.8922   13.0199 H     288  UNL288      0.1146
   1152 H           4.0426    7.3325   12.9716 H     288  UNL288      0.1146
   1153 N           4.0368    8.2026   15.6181 N.3   289  UNL289     -0.3437
   1154 H           3.5951    8.4932   16.4892 H     289  UNL289      0.1146
   1155 H           4.7624    8.8922   15.4274 H     289  UNL289      0.1146
   1156 H           4.5243    7.3325   15.8270 H     289  UNL289      0.1146
   1157 N           4.0368    8.2026   18.2589 N.3   290  UNL290     -0.3437
   1158 H           3.5951    8.4932   19.1300 H     290  UNL290      0.1146
   1159 H           4.7624    8.8922   18.0682 H     290  UNL290      0.1146
   1160 H           4.5243    7.3325   18.4678 H     290  UNL290      0.1146
   1161 N           4.0368    8.2026   20.8997 N.3   291  UNL291     -0.3437
   1162 H           3.5951    8.4932   21.7708 H     291  UNL291      0.1146
   1163 H           4.7624    8.8922   20.7090 H     291  UNL291      0.1146
   1164 H           4.5243    7.3325   21.1086 H     291  UNL291      0.1146
   1165 N           4.0368   11.2445    0.1065 N.3   292  UNL292     -0.3437
   1166 H           3.5951   10.3727   -0.1820 H     292  UNL292      0.1146
   1167 H           4.7624   10.9846    0.7731 H     292  UNL292      0.1146
   1168 H           4.5243   11.5979   -0.7156 H     292  UNL292      0.1146
   1169 N           2.1670   11.0224    2.9238 N.3   293  UNL293     -0.3437
   1170 H           3.1292   11.3130    2.7564 H     293  UNL293      0.1146
   1171 H           1.5800   11.7120    2.4566 H     293  UNL293      0.1146
   1172 H           2.0426   10.1523    2.4083 H     293  UNL293      0.1146
   1173 N           4.0368   11.2445    5.3881 N.3   294  UNL294     -0.3437
   1174 H           3.5951   10.3727    5.0996 H     294  UNL294      0.1146
   1175 H           4.7624   10.9846    6.0547 H     294  UNL294      0.1146
   1176 H           4.5243   11.5979    4.5660 H     294  UNL294      0.1146
   1177 N           4.0368   11.2445    8.0289 N.3   295  UNL295     -0.3437
   1178 H           3.5951   10.3727    7.7404 H     295  UNL295      0.1146
   1179 H           4.7624   10.9846    8.6955 H     295  UNL295      0.1146
   1180 H           4.5243   11.5979    7.2068 H     295  UNL295      0.1146
   1181 N           4.0368   11.0224   10.3364 N.3   296  UNL296     -0.3437
   1182 H           3.5951   11.3130   11.2075 H     296  UNL296      0.1146
   1183 H           4.7624   11.7120   10.1457 H     296  UNL296      0.1146
   1184 H           4.5243   10.1523   10.5453 H     296  UNL296      0.1146
   1185 N           4.0368   11.0224   12.9773 N.3   297  UNL297     -0.3437
   1186 H           3.5951   11.3130   13.8484 H     297  UNL297      0.1146
   1187 H           4.7624   11.7120   12.7866 H     297  UNL297      0.1146
   1188 H           4.5243   10.1523   13.1862 H     297  UNL297      0.1146
   1189 N           4.0368   10.8883   15.9955 N.3   298  UNL298     -0.3437
   1190 H           3.5951   11.4123   15.2414 H     298  UNL298      0.1146
   1191 H           4.7624   10.3228   15.5572 H     298  UNL298      0.1146
   1192 H           4.5243   11.5764   16.5676 H     298  UNL298      0.1146
   1193 N           4.0368   11.2445   18.5922 N.3   299  UNL299     -0.3437
   1194 H           3.5951   10.3727   18.3037 H     299  UNL299      0.1146
   1195 H           4.7624   10.9846   19.2588 H     299  UNL299      0.1146
   1196 H           4.5243   11.5979   17.7701 H     299  UNL299      0.1146
   1197 N           4.0368   11.2445   21.2331 N.3   300  UNL300     -0.3437
   1198 H           3.5951   10.3727   20.9446 H     300  UNL300      0.1146
   1199 H           4.7624   10.9846   21.8997 H     300  UNL300      0.1146
   1200 H           4.5243   11.5979   20.4110 H     300  UNL300      0.1146
   1201 N           4.0368   14.0643    0.1065 N.3   301  UNL301     -0.3437
   1202 H           3.5951   13.1925   -0.1820 H     301  UNL301      0.1146
   1203 H           4.7624   13.8044    0.7731 H     301  UNL301      0.1146
   1204 H           4.5243   14.4176   -0.7156 H     301  UNL301      0.1146
   1205 N           4.0368   14.0643    2.7473 N.3   302  UNL302     -0.3437
   1206 H           3.5951   13.1925    2.4588 H     302  UNL302      0.1146
   1207 H           4.7624   13.8044    3.4139 H     302  UNL302      0.1146
   1208 H           4.5243   14.4176    1.9252 H     302  UNL302      0.1146
   1209 N           4.0368   14.0643    5.3881 N.3   303  UNL303     -0.3437
   1210 H           3.5951   13.1925    5.0996 H     303  UNL303      0.1146
   1211 H           4.7624   13.8044    6.0547 H     303  UNL303      0.1146
   1212 H           4.5243   14.4176    4.5660 H     303  UNL303      0.1146
   1213 N           4.0368   14.0643    8.0289 N.3   304  UNL304     -0.3437
   1214 H           3.5951   13.1925    7.7404 H     304  UNL304      0.1146
   1215 H           4.7624   13.8044    8.6955 H     304  UNL304      0.1146
   1216 H           4.5243   14.4176    7.2068 H     304  UNL304      0.1146
   1217 N           4.0368   13.8422   10.3364 N.3   305  UNL305     -0.3437
   1218 H           3.5951   14.1328   11.2075 H     305  UNL305      0.1146
   1219 H           4.7624   14.5318   10.1457 H     305  UNL305      0.1146
   1220 H           4.5243   12.9721   10.5453 H     305  UNL305      0.1146
   1221 N           2.0368   13.8422   12.9773 N.3   306  UNL306     -0.3437
   1222 H           1.5951   14.1328   13.8484 H     306  UNL306      0.1146
   1223 H           2.7624   14.5318   12.7866 H     306  UNL306      0.1146
   1224 H           2.5243   12.9721   13.1862 H     306  UNL306      0.1146
   1225 N           2.0368   13.8422   15.6181 N.3   307  UNL307     -0.3437
   1226 H           1.5951   14.1328   16.4892 H     307  UNL307      0.1146
   1227 H           2.7624   14.5318   15.4274 H     307  UNL307      0.1146
   1228 H           2.5243   12.9721   15.8270 H     307  UNL307      0.1146
   1229 N           4.0368   14.0643   18.5922 N.3   308  UNL308     -0.3437
   1230 H           3.5951   13.1925   18.3037 H     308  UNL308      0.1146
   1231 H           4.7624   13.8044   19.2588 H     308  UNL308      0.1146
   1232 H           4.5243   14.4176   17.7701 H     308  UNL308      0.1146
   1233 N           4.0368   14.0643   21.2331 N.3   309  UNL309     -0.3437
   1234 H           3.5951   13.1925   20.9446 H     309  UNL309      0.1146
   1235 H           4.7624   13.8044   21.8997 H     309  UNL309      0.1146
   1236 H           4.5243   14.4176   20.4110 H     309  UNL309      0.1146
   1237 N           2.0153   16.4892    2.6722 N.3   310  UNL310     -0.3437
   1238 H           2.0737   17.1475    3.4479 H     310  UNL310      0.1146
   1239 H           1.8904   17.0540    1.8333 H     310  UNL310      0.1146
   1240 H           2.9394   16.0673    2.5917 H     310  UNL310      0.1146
   1241 N           4.0368   16.8841    5.3881 N.3   311  UNL311     -0.3437
   1242 H           3.5951   16.0123    5.0996 H     311  UNL311      0.1146
   1243 H           4.7624   16.6241    6.0547 H     311  UNL311      0.1146
   1244 H           4.5243   17.2374    4.5660 H     311  UNL311      0.1146
   1245 N           4.0368   16.8841    8.0289 N.3   312  UNL312     -0.3437
   1246 H           3.5951   16.0123    7.7404 H     312  UNL312      0.1146
   1247 H           4.7624   16.6241    8.6955 H     312  UNL312      0.1146
   1248 H           4.5243   17.2374    7.2068 H     312  UNL312      0.1146
   1249 N           4.0368   16.6619   10.3364 N.3   313  UNL313     -0.3437
   1250 H           3.5951   16.9525   11.2075 H     313  UNL313      0.1146
   1251 H           4.7624   17.3516   10.1457 H     313  UNL313      0.1146
   1252 H           4.5243   15.7919   10.5453 H     313  UNL313      0.1146
   1253 N           4.0368   16.6619   12.9773 N.3   314  UNL314     -0.3437
   1254 H           3.5951   16.9525   13.8484 H     314  UNL314      0.1146
   1255 H           4.7624   17.3516   12.7866 H     314  UNL314      0.1146
   1256 H           4.5243   15.7919   13.1862 H     314  UNL314      0.1146
   1257 N           4.0368   16.6619   15.6181 N.3   315  UNL315     -0.3437
   1258 H           3.5951   16.9525   16.4892 H     315  UNL315      0.1146
   1259 H           4.7624   17.3516   15.4274 H     315  UNL315      0.1146
   1260 H           4.5243   15.7919   15.8270 H     315  UNL315      0.1146
   1261 N           4.0368   16.8841   18.5922 N.3   316  UNL316     -0.3437
   1262 H           3.5951   16.0123   18.3037 H     316  UNL316      0.1146
   1263 H           4.7624   16.6241   19.2588 H     316  UNL316      0.1146
   1264 H           4.5243   17.2374   17.7701 H     316  UNL316      0.1146
   1265 N           4.0368   16.8841   21.2331 N.3   317  UNL317     -0.3437
   1266 H           3.5951   16.0123   20.9446 H     317  UNL317      0.1146
   1267 H           4.7624   16.6241   21.8997 H     317  UNL317      0.1146
   1268 H           4.5243   17.2374   20.4110 H     317  UNL317      0.1146
   1269 N           4.0368   19.7038    0.1065 N.3   318  UNL318     -0.3437
   1270 H           3.5951   18.8320   -0.1820 H     318  UNL318      0.1146
   1271 H           4.7624   19.4439    0.7731 H     318  UNL318      0.1146
   1272 H           4.5243   20.0572   -0.7156 H     318  UNL318      0.1146
   1273 N           4.0368   19.7038    2.7473 N.3   319  UNL319     -0.3437
   1274 H           3.5951   18.8320    2.4588 H     319  UNL319      0.1146
   1275 H           4.7624   19.4439    3.4139 H     319  UNL319      0.1146
   1276 H           4.5243   20.0572    1.9252 H     319  UNL319      0.1146
   1277 N           4.0368   19.7038    5.3881 N.3   320  UNL320     -0.3437
   1278 H           3.5951   18.8320    5.0996 H     320  UNL320      0.1146
   1279 H           4.7624   19.4439    6.0547 H     320  UNL320      0.1146
   1280 H           4.5243   20.0572    4.5660 H     320  UNL320      0.1146
   1281 N           4.0368   19.7038    8.0289 N.3   321  UNL321     -0.3437
   1282 H           3.5951   18.8320    7.7404 H     321  UNL321      0.1146
   1283 H           4.7624   19.4439    8.6955 H     321  UNL321      0.1146
   1284 H           4.5243   20.0572    7.2068 H     321  UNL321      0.1146
   1285 N           4.0368   19.4817   10.3364 N.3   322  UNL322     -0.3437
   1286 H           3.5951   19.7723   11.2075 H     322  UNL322      0.1146
   1287 H           4.7624   20.1713   10.1457 H     322  UNL322      0.1146
   1288 H           4.5243   18.6116   10.5453 H     322  UNL322      0.1146
   1289 N           4.0368   19.3476   13.3547 N.3   323  UNL323     -0.3437
   1290 H           3.5951   19.8716   12.6006 H     323  UNL323      0.1146
   1291 H           4.7624   18.7821   12.9163 H     323  UNL323      0.1146
   1292 H           4.5243   20.0357   13.9268 H     323  UNL323      0.1146
   1293 N           4.0368   19.7038   15.9514 N.3   324  UNL324     -0.3437
   1294 H           3.5951   18.8320   15.6629 H     324  UNL324      0.1146
   1295 H           4.7624   19.4439   16.6180 H     324  UNL324      0.1146
   1296 H           4.5243   20.0572   15.1293 H     324  UNL324      0.1146
   1297 N           4.0368   19.7038   18.5922 N.3   325  UNL325     -0.3437
   1298 H           3.5951   18.8320   18.3037 H     325  UNL325      0.1146
   1299 H           4.7624   19.4439   19.2588 H     325  UNL325      0.1146
   1300 H           4.5243   20.0572   17.7701 H     325  UNL325      0.1146
   1301 N           4.0368   19.7038   21.2331 N.3   326  UNL326     -0.3437
   1302 H           3.5951   18.8320   20.9446 H     326  UNL326      0.1146
   1303 H           4.7624   19.4439   21.8997 H     326  UNL326      0.1146
   1304 H           4.5243   20.0572   20.4110 H     326  UNL326      0.1146
   1305 N           4.0368   22.5236    0.1065 N.3   327  UNL327     -0.3437
   1306 H           3.5951   21.6518   -0.1820 H     327  UNL327      0.1146
   1307 H           4.7624   22.2637    0.7731 H     327  UNL327      0.1146
   1308 H           4.5243   22.8770   -0.7156 H     327  UNL327      0.1146
   1309 N           2.2434   22.5169    2.4085 N.3   328  UNL328     -0.3437
   1310 H           1.6220   22.8398    3.1487 H     328  UNL328      0.1146
   1311 H           3.1496   22.3646    2.8491 H     328  UNL328      0.1146
   1312 H           1.9038   21.5948    2.1388 H     328  UNL328      0.1146
   1313 N           4.0368   22.5236    5.3881 N.3   329  UNL329     -0.3437
   1314 H           3.5951   21.6518    5.0996 H     329  UNL329      0.1146
   1315 H           4.7624   22.2637    6.0547 H     329  UNL329      0.1146
   1316 H           4.5243   22.8770    4.5660 H     329  UNL329      0.1146
   1317 N           4.0368   22.5236    8.0289 N.3   330  UNL330     -0.3437
   1318 H           3.5951   21.6518    7.7404 H     330  UNL330      0.1146
   1319 H           4.7624   22.2637    8.6955 H     330  UNL330      0.1146
   1320 H           4.5243   22.8770    7.2068 H     330  UNL330      0.1146
   1321 N           4.0368   22.3015   10.3364 N.3   331  UNL331     -0.3437
   1322 H           3.5951   22.5921   11.2075 H     331  UNL331      0.1146
   1323 H           4.7624   22.9911   10.1457 H     331  UNL331      0.1146
   1324 H           4.5243   21.4314   10.5453 H     331  UNL331      0.1146
   1325 N           4.0368   22.3015   12.9773 N.3   332  UNL332     -0.3437
   1326 H           3.5951   22.5921   13.8484 H     332  UNL332      0.1146
   1327 H           4.7624   22.9911   12.7866 H     332  UNL332      0.1146
   1328 H           4.5243   21.4314   13.1862 H     332  UNL332      0.1146
   1329 N           4.0368   22.3015   15.6181 N.3   333  UNL333     -0.3437
   1330 H           3.5951   22.5921   16.4892 H     333  UNL333      0.1146
   1331 H           4.7624   22.9911   15.4274 H     333  UNL333      0.1146
   1332 H           4.5243   21.4314   15.8270 H     333  UNL333      0.1146
   1333 N           4.0368   22.5236   18.5922 N.3   334  UNL334     -0.3437
   1334 H           3.5951   21.6518   18.3037 H     334  UNL334      0.1146
   1335 H           4.7624   22.2637   19.2588 H     334  UNL334      0.1146
   1336 H           4.5243   22.8770   17.7701 H     334  UNL334      0.1146
   1337 N           2.1670   22.3015   21.4096 N.3   335  UNL335     -0.3437
   1338 H           3.1292   22.5921   21.2422 H     335  UNL335      0.1146
   1339 H           1.5800   22.9911   20.9424 H     335  UNL335      0.1146
   1340 H           2.0426   21.4314   20.8940 H     335  UNL335      0.1146
   1341 N           4.0368   25.3434    0.1065 N.3   336  UNL336     -0.3437
   1342 H           3.5951   24.4716   -0.1820 H     336  UNL336      0.1146
   1343 H           4.7624   25.0835    0.7731 H     336  UNL336      0.1146
   1344 H           4.5243   25.6967   -0.7156 H     336  UNL336      0.1146
   1345 N           4.0368   25.3434    2.7473 N.3   337  UNL337     -0.3437
   1346 H           3.5951   24.4716    2.4588 H     337  UNL337      0.1146
   1347 H           4.7624   25.0835    3.4139 H     337  UNL337      0.1146
   1348 H           4.5243   25.6967    1.9252 H     337  UNL337      0.1146
   1349 N           4.0368   25.3434    5.3881 N.3   338  UNL338     -0.3437
   1350 H           3.5951   24.4716    5.0996 H     338  UNL338      0.1146
   1351 H           4.7624   25.0835    6.0547 H     338  UNL338      0.1146
   1352 H           4.5243   25.6967    4.5660 H     338  UNL338      0.1146
   1353 N           4.0368   25.3434    8.0289 N.3   339  UNL339     -0.3437
   1354 H           3.5951   24.4716    7.7404 H     339  UNL339      0.1146
   1355 H           4.7624   25.0835    8.6955 H     339  UNL339      0.1146
   1356 H           4.5243   25.6967    7.2068 H     339  UNL339      0.1146
   1357 N           4.0004   25.0284   10.4163 N.3   340  UNL340     -0.3437
   1358 H           4.1281   24.6452   11.3518 H     340  UNL340      0.1146
   1359 H           3.9053   26.0359   10.5360 H     340  UNL340      0.1146
   1360 H           4.8850   24.8856    9.9310 H     340  UNL340      0.1146
   1361 N           4.0004   25.0284   13.0571 N.3   341  UNL341     -0.3437
   1362 H           4.1281   24.6452   13.9926 H     341  UNL341      0.1146
   1363 H           3.9053   26.0359   13.1768 H     341  UNL341      0.1146
   1364 H           4.8850   24.8856   12.5718 H     341  UNL341      0.1146
   1365 N           4.0004   25.0284   15.6979 N.3   342  UNL342     -0.3437
   1366 H           4.1281   24.6452   16.6334 H     342  UNL342      0.1146
   1367 H           3.9053   26.0359   15.8176 H     342  UNL342      0.1146
   1368 H           4.8850   24.8856   15.2127 H     342  UNL342      0.1146
   1369 N           4.0368   25.3434   18.5922 N.3   343  UNL343     -0.3437
   1370 H           3.5951   24.4716   18.3037 H     343  UNL343      0.1146
   1371 H           4.7624   25.0835   19.2588 H     343  UNL343      0.1146
   1372 H           4.5243   25.6967   17.7701 H     343  UNL343      0.1146
   1373 N           4.0368   25.3434   21.2331 N.3   344  UNL344     -0.3437
   1374 H           3.5951   24.4716   20.9446 H     344  UNL344      0.1146
   1375 H           4.7624   25.0835   21.8997 H     344  UNL344      0.1146
   1376 H           4.5243   25.6967   20.4110 H     344  UNL344      0.1146
   1377 N           4.0368   28.1632    0.1065 N.3   345  UNL345     -0.3437
   1378 H           3.5951   27.2914   -0.1820 H     345  UNL345      0.1146
   1379 H           4.7624   27.9032    0.7731 H     345  UNL345      0.1146
   1380 H           4.5243   28.5165   -0.7156 H     345  UNL345      0.1146
   1381 N           4.0368   28.1632    2.7473 N.3   346  UNL346     -0.3437
   1382 H           3.5951   27.2914    2.4588 H     346  UNL346      0.1146
   1383 H           4.7624   27.9032    3.4139 H     346  UNL346      0.1146
   1384 H           4.5243   28.5165    1.9252 H     346  UNL346      0.1146
   1385 N           4.0368   28.1632    5.3881 N.3   347  UNL347     -0.3437
   1386 H           3.5951   27.2914    5.0996 H     347  UNL347      0.1146
   1387 H           4.7624   27.9032    6.0547 H     347  UNL347      0.1146
   1388 H           4.5243   28.5165    4.5660 H     347  UNL347      0.1146
   1389 N           4.0368   28.1632    8.0289 N.3   348  UNL348     -0.3437
   1390 H           3.5951   27.2914    7.7404 H     348  UNL348      0.1146
   1391 H           4.7624   27.9032    8.6955 H     348  UNL348      0.1146
   1392 H           4.5243   28.5165    7.2068 H     348  UNL348      0.1146
   1393 N           4.0368   28.1632   10.6698 N.3   349  UNL349     -0.3437
   1394 H           3.5951   27.2914   10.3813 H     349  UNL349      0.1146
   1395 H           4.7624   27.9032   11.3364 H     349  UNL349      0.1146
   1396 H           4.5243   28.5165    9.8477 H     349  UNL349      0.1146
   1397 N           4.0368   28.1632   13.3106 N.3   350  UNL350     -0.3437
   1398 H           3.5951   27.2914   13.0221 H     350  UNL350      0.1146
   1399 H           4.7624   27.9032   13.9772 H     350  UNL350      0.1146
   1400 H           4.5243   28.5165   12.4885 H     350  UNL350      0.1146
   1401 N           4.0368   28.1632   15.9514 N.3   351  UNL351     -0.3437
   1402 H           3.5951   27.2914   15.6629 H     351  UNL351      0.1146
   1403 H           4.7624   27.9032   16.6180 H     351  UNL351      0.1146
   1404 H           4.5243   28.5165   15.1293 H     351  UNL351      0.1146
   1405 N           4.0368   28.1632   18.5922 N.3   352  UNL352     -0.3437
   1406 H           3.5951   27.2914   18.3037 H     352  UNL352      0.1146
   1407 H           4.7624   27.9032   19.2588 H     352  UNL352      0.1146
   1408 H           4.5243   28.5165   17.7701 H     352  UNL352      0.1146
   1409 N           4.0368   28.1632   21.2331 N.3   353  UNL353     -0.3437
   1410 H           3.5951   27.2914   20.9446 H     353  UNL353      0.1146
   1411 H           4.7624   27.9032   21.8997 H     353  UNL353      0.1146
   1412 H           4.5243   28.5165   20.4110 H     353  UNL353      0.1146
   1413 N           4.0368   30.7608   -0.2269 N.3   354  UNL354     -0.3437
   1414 H           3.5951   31.0514    0.6442 H     354  UNL354      0.1146
   1415 H           4.7624   31.4504   -0.4176 H     354  UNL354      0.1146
   1416 H           4.5243   29.8907   -0.0180 H     354  UNL354      0.1146
   1417 N           4.0368   30.7608    2.4140 N.3   355  UNL355     -0.3437
   1418 H           3.5951   31.0514    3.2851 H     355  UNL355      0.1146
   1419 H           4.7624   31.4504    2.2233 H     355  UNL355      0.1146
   1420 H           4.5243   29.8907    2.6229 H     355  UNL355      0.1146
   1421 N           4.0368   30.7608    5.0548 N.3   356  UNL356     -0.3437
   1422 H           3.5951   31.0514    5.9259 H     356  UNL356      0.1146
   1423 H           4.7624   31.4504    4.8641 H     356  UNL356      0.1146
   1424 H           4.5243   29.8907    5.2637 H     356  UNL356      0.1146
   1425 N           4.0368   30.7608    7.6956 N.3   357  UNL357     -0.3437
   1426 H           3.5951   31.0514    8.5667 H     357  UNL357      0.1146
   1427 H           4.7624   31.4504    7.5049 H     357  UNL357      0.1146
   1428 H           4.5243   29.8907    7.9045 H     357  UNL357      0.1146
   1429 N           2.0368   30.7608   10.3364 N.3   358  UNL358     -0.3437
   1430 H           1.5951   31.0514   11.2075 H     358  UNL358      0.1146
   1431 H           2.7624   31.4504   10.1457 H     358  UNL358      0.1146
   1432 H           2.5243   29.8907   10.5453 H     358  UNL358      0.1146
   1433 N           4.0368   30.7608   12.9773 N.3   359  UNL359     -0.3437
   1434 H           3.5951   31.0514   13.8484 H     359  UNL359      0.1146
   1435 H           4.7624   31.4504   12.7866 H     359  UNL359      0.1146
   1436 H           4.5243   29.8907   13.1862 H     359  UNL359      0.1146
   1437 N           4.0368   30.7608   15.6181 N.3   360  UNL360     -0.3437
   1438 H           3.5951   31.0514   16.4892 H     360  UNL360      0.1146
   1439 H           4.7624   31.4504   15.4274 H     360  UNL360      0.1146
   1440 H           4.5243   29.8907   15.8270 H     360  UNL360      0.1146
   1441 N           4.0368   30.7608   18.2589 N.3   361  UNL361     -0.3437
   1442 H           3.5951   31.0514   19.1300 H     361  UNL361      0.1146
   1443 H           4.7624   31.4504   18.0682 H     361  UNL361      0.1146
   1444 H           4.5243   29.8907   18.4678 H     361  UNL361      0.1146
   1445 N           4.0368   30.7608   20.8997 N.3   362  UNL362     -0.3437
   1446 H           3.5951   31.0514   21.7708 H     362  UNL362      0.1146
   1447 H           4.7624   31.4504   20.7090 H     362  UNL362      0.1146
   1448 H           4.5243   29.8907   21.1086 H     362  UNL362      0.1146
   1449 N           4.0368   33.5806   -0.2269 N.3   363  UNL363     -0.3437
   1450 H           3.5951   33.8712    0.6442 H     363  UNL363      0.1146
   1451 H           4.7624   34.2702   -0.4176 H     363  UNL363      0.1146
   1452 H           4.5243   32.7105   -0.0180 H     363  UNL363      0.1146
   1453 N           4.0368   33.5806    2.4140 N.3   364  UNL364     -0.3437
   1454 H           3.5951   33.8712    3.2851 H     364  UNL364      0.1146
   1455 H           4.7624   34.2702    2.2233 H     364  UNL364      0.1146
   1456 H           4.5243   32.7105    2.6229 H     364  UNL364      0.1146
   1457 N           4.0368   33.5806    5.0548 N.3   365  UNL365     -0.3437
   1458 H           3.5951   33.8712    5.9259 H     365  UNL365      0.1146
   1459 H           4.7624   34.2702    4.8641 H     365  UNL365      0.1146
   1460 H           4.5243   32.7105    5.2637 H     365  UNL365      0.1146
   1461 N           4.0368   33.5806    7.6956 N.3   366  UNL366     -0.3437
   1462 H           3.5951   33.8712    8.5667 H     366  UNL366      0.1146
   1463 H           4.7624   34.2702    7.5049 H     366  UNL366      0.1146
   1464 H           4.5243   32.7105    7.9045 H     366  UNL366      0.1146
   1465 N           4.0368   33.5806   10.3364 N.3   367  UNL367     -0.3437
   1466 H           3.5951   33.8712   11.2075 H     367  UNL367      0.1146
   1467 H           4.7624   34.2702   10.1457 H     367  UNL367      0.1146
   1468 H           4.5243   32.7105   10.5453 H     367  UNL367      0.1146
   1469 N           4.0368   33.5806   12.9773 N.3   368  UNL368     -0.3437
   1470 H           3.5951   33.8712   13.8484 H     368  UNL368      0.1146
   1471 H           4.7624   34.2702   12.7866 H     368  UNL368      0.1146
   1472 H           4.5243   32.7105   13.1862 H     368  UNL368      0.1146
   1473 N           4.0368   33.5806   15.6181 N.3   369  UNL369     -0.3437
   1474 H           3.5951   33.8712   16.4892 H     369  UNL369      0.1146
   1475 H           4.7624   34.2702   15.4274 H     369  UNL369      0.1146
   1476 H           4.5243   32.7105   15.8270 H     369  UNL369      0.1146
   1477 N           4.0368   33.5806   18.2589 N.3   370  UNL370     -0.3437
   1478 H           3.5951   33.8712   19.1300 H     370  UNL370      0.1146
   1479 H           4.7624   34.2702   18.0682 H     370  UNL370      0.1146
   1480 H           4.5243   32.7105   18.4678 H     370  UNL370      0.1146
   1481 N           4.0368   33.5806   20.8997 N.3   371  UNL371     -0.3437
   1482 H           3.5951   33.8712   21.7708 H     371  UNL371      0.1146
   1483 H           4.7624   34.2702   20.7090 H     371  UNL371      0.1146
   1484 H           4.5243   32.7105   21.1086 H     371  UNL371      0.1146
   1485 N           4.1670   36.4004    0.2830 N.3   372  UNL372     -0.3437
   1486 H           5.1292   36.6910    0.1156 H     372  UNL372      0.1146
   1487 H           3.5800   37.0900   -0.1842 H     372  UNL372      0.1146
   1488 H           4.0426   35.5303   -0.2326 H     372  UNL372      0.1146
   1489 N           4.0368   36.4004    2.4140 N.3   373  UNL373     -0.3437
   1490 H           3.5951   36.6910    3.2851 H     373  UNL373      0.1146
   1491 H           4.7624   37.0900    2.2233 H     373  UNL373      0.1146
   1492 H           4.5243   35.5303    2.6229 H     373  UNL373      0.1146
   1493 N           4.0368   36.2663    5.4322 N.3   374  UNL374     -0.3437
   1494 H           3.5951   36.7902    4.6781 H     374  UNL374      0.1146
   1495 H           4.7624   35.7008    4.9939 H     374  UNL374      0.1146
   1496 H           4.5243   36.9543    6.0043 H     374  UNL374      0.1146
   1497 N           4.0368   36.4004    7.6956 N.3   375  UNL375     -0.3437
   1498 H           3.5951   36.6910    8.5667 H     375  UNL375      0.1146
   1499 H           4.7624   37.0900    7.5049 H     375  UNL375      0.1146
   1500 H           4.5243   35.5303    7.9045 H     375  UNL375      0.1146
   1501 N           4.0368   36.4004   10.3364 N.3   376  UNL376     -0.3437
   1502 H           3.5951   36.6910   11.2075 H     376  UNL376      0.1146
   1503 H           4.7624   37.0900   10.1457 H     376  UNL376      0.1146
   1504 H           4.5243   35.5303   10.5453 H     376  UNL376      0.1146
   1505 N           4.0368   36.4004   12.9773 N.3   377  UNL377     -0.3437
   1506 H           3.5951   36.6910   13.8484 H     377  UNL377      0.1146
   1507 H           4.7624   37.0900   12.7866 H     377  UNL377      0.1146
   1508 H           4.5243   35.5303   13.1862 H     377  UNL377      0.1146
   1509 N           4.0368   36.4004   15.6181 N.3   378  UNL378     -0.3437
   1510 H           3.5951   36.6910   16.4892 H     378  UNL378      0.1146
   1511 H           4.7624   37.0900   15.4274 H     378  UNL378      0.1146
   1512 H           4.5243   35.5303   15.8270 H     378  UNL378      0.1146
   1513 N           4.0368   36.4004   18.2589 N.3   379  UNL379     -0.3437
   1514 H           3.5951   36.6910   19.1300 H     379  UNL379      0.1146
   1515 H           4.7624   37.0900   18.0682 H     379  UNL379      0.1146
   1516 H           4.5243   35.5303   18.4678 H     379  UNL379      0.1146
   1517 N           4.0368   36.4004   20.8997 N.3   380  UNL380     -0.3437
   1518 H           3.5951   36.6910   21.7708 H     380  UNL380      0.1146
   1519 H           4.7624   37.0900   20.7090 H     380  UNL380      0.1146
   1520 H           4.5243   35.5303   21.1086 H     380  UNL380      0.1146
   1521 N           4.0368   39.4423    0.1065 N.3   381  UNL381     -0.3437
   1522 H           3.5951   38.5705   -0.1820 H     381  UNL381      0.1146
   1523 H           4.7624   39.1824    0.7731 H     381  UNL381      0.1146
   1524 H           4.5243   39.7956   -0.7156 H     381  UNL381      0.1146
   1525 N           4.0368   39.4423    2.7473 N.3   382  UNL382     -0.3437
   1526 H           3.5951   38.5705    2.4588 H     382  UNL382      0.1146
   1527 H           4.7624   39.1824    3.4139 H     382  UNL382      0.1146
   1528 H           4.5243   39.7956    1.9252 H     382  UNL382      0.1146
   1529 N           4.0368   39.4423    5.3881 N.3   383  UNL383     -0.3437
   1530 H           3.5951   38.5705    5.0996 H     383  UNL383      0.1146
   1531 H           4.7624   39.1824    6.0547 H     383  UNL383      0.1146
   1532 H           4.5243   39.7956    4.5660 H     383  UNL383      0.1146
   1533 N           4.0368   39.4423    8.0289 N.3   384  UNL384     -0.3437
   1534 H           3.5951   38.5705    7.7404 H     384  UNL384      0.1146
   1535 H           4.7624   39.1824    8.6955 H     384  UNL384      0.1146
   1536 H           4.5243   39.7956    7.2068 H     384  UNL384      0.1146
   1537 N           4.0368   39.2202   10.3364 N.3   385  UNL385     -0.3437
   1538 H           3.5951   39.5108   11.2075 H     385  UNL385      0.1146
   1539 H           4.7624   39.9098   10.1457 H     385  UNL385      0.1146
   1540 H           4.5243   38.3501   10.5453 H     385  UNL385      0.1146
   1541 N           4.0368   39.2202   12.9773 N.3   386  UNL386     -0.3437
   1542 H           3.5951   39.5108   13.8484 H     386  UNL386      0.1146
   1543 H           4.7624   39.9098   12.7866 H     386  UNL386      0.1146
   1544 H           4.5243   38.3501   13.1862 H     386  UNL386      0.1146
   1545 N           4.0368   39.2202   15.6181 N.3   387  UNL387     -0.3437
   1546 H           3.5951   39.5108   16.4892 H     387  UNL387      0.1146
   1547 H           4.7624   39.9098   15.4274 H     387  UNL387      0.1146
   1548 H           4.5243   38.3501   15.8270 H     387  UNL387      0.1146
   1549 N           4.0368   39.2202   18.2589 N.3   388  UNL388     -0.3437
   1550 H           3.5951   39.5108   19.1300 H     388  UNL388      0.1146
   1551 H           4.7624   39.9098   18.0682 H     388  UNL388      0.1146
   1552 H           4.5243   38.3501   18.4678 H     388  UNL388      0.1146
   1553 N           4.0368   39.2202   20.8997 N.3   389  UNL389     -0.3437
   1554 H           3.5951   39.5108   21.7708 H     389  UNL389      0.1146
   1555 H           4.7624   39.9098   20.7090 H     389  UNL389      0.1146
   1556 H           4.5243   38.3501   21.1086 H     389  UNL389      0.1146
   1557 N           6.5685   -0.2567   -0.2269 N.3   390  UNL390     -0.3437
   1558 H           6.1268    0.0339    0.6442 H     390  UNL390      0.1146
   1559 H           7.2941    0.4329   -0.4176 H     390  UNL390      0.1146
   1560 H           7.0560   -1.1268   -0.0180 H     390  UNL390      0.1146
   1561 N           6.5685   -0.2567    2.4140 N.3   391  UNL391     -0.3437
   1562 H           6.1268    0.0339    3.2851 H     391  UNL391      0.1146
   1563 H           7.2941    0.4329    2.2233 H     391  UNL391      0.1146
   1564 H           7.0560   -1.1268    2.6229 H     391  UNL391      0.1146
   1565 N           6.5685   -0.2567    5.0548 N.3   392  UNL392     -0.3437
   1566 H           6.1268    0.0339    5.9259 H     392  UNL392      0.1146
   1567 H           7.2941    0.4329    4.8641 H     392  UNL392      0.1146
   1568 H           7.0560   -1.1268    5.2637 H     392  UNL392      0.1146
   1569 N           6.5685   -0.2567    7.6956 N.3   393  UNL393     -0.3437
   1570 H           6.1268    0.0339    8.5667 H     393  UNL393      0.1146
   1571 H           7.2941    0.4329    7.5049 H     393  UNL393      0.1146
   1572 H           7.0560   -1.1268    7.9045 H     393  UNL393      0.1146
   1573 N           6.5685   -0.2567   10.3364 N.3   394  UNL394     -0.3437
   1574 H           6.1268    0.0339   11.2075 H     394  UNL394      0.1146
   1575 H           7.2941    0.4329   10.1457 H     394  UNL394      0.1146
   1576 H           7.0560   -1.1268   10.5453 H     394  UNL394      0.1146
   1577 N           6.5685   -0.2567   12.9773 N.3   395  UNL395     -0.3437
   1578 H           6.1268    0.0339   13.8484 H     395  UNL395      0.1146
   1579 H           7.2941    0.4329   12.7866 H     395  UNL395      0.1146
   1580 H           7.0560   -1.1268   13.1862 H     395  UNL395      0.1146
   1581 N           6.5685   -0.2567   15.6181 N.3   396  UNL396     -0.3437
   1582 H           6.1268    0.0339   16.4892 H     396  UNL396      0.1146
   1583 H           7.2941    0.4329   15.4274 H     396  UNL396      0.1146
   1584 H           7.0560   -1.1268   15.8270 H     396  UNL396      0.1146
   1585 N           6.5685   -0.2567   18.2589 N.3   397  UNL397     -0.3437
   1586 H           6.1268    0.0339   19.1300 H     397  UNL397      0.1146
   1587 H           7.2941    0.4329   18.0682 H     397  UNL397      0.1146
   1588 H           7.0560   -1.1268   18.4678 H     397  UNL397      0.1146
   1589 N           6.5685   -0.2567   20.8997 N.3   398  UNL398     -0.3437
   1590 H           6.1268    0.0339   21.7708 H     398  UNL398      0.1146
   1591 H           7.2941    0.4329   20.7090 H     398  UNL398      0.1146
   1592 H           7.0560   -1.1268   21.1086 H     398  UNL398      0.1146
   1593 N           6.5685    2.5631   -0.2269 N.3   399  UNL399     -0.3437
   1594 H           6.1268    2.8537    0.6442 H     399  UNL399      0.1146
   1595 H           7.2941    3.2527   -0.4176 H     399  UNL399      0.1146
   1596 H           7.0560    1.6930   -0.0180 H     399  UNL399      0.1146
   1597 N           6.5685    2.5631    2.4140 N.3   400  UNL400     -0.3437
   1598 H           6.1268    2.8537    3.2851 H     400  UNL400      0.1146
   1599 H           7.2941    3.2527    2.2233 H     400  UNL400      0.1146
   1600 H           7.0560    1.6930    2.6229 H     400  UNL400      0.1146
   1601 N           6.5685    2.5631    5.0548 N.3   401  UNL401     -0.3437
   1602 H           6.1268    2.8537    5.9259 H     401  UNL401      0.1146
   1603 H           7.2941    3.2527    4.8641 H     401  UNL401      0.1146
   1604 H           7.0560    1.6930    5.2637 H     401  UNL401      0.1146
   1605 N           6.5685    2.5631    7.6956 N.3   402  UNL402     -0.3437
   1606 H           6.1268    2.8537    8.5667 H     402  UNL402      0.1146
   1607 H           7.2941    3.2527    7.5049 H     402  UNL402      0.1146
   1608 H           7.0560    1.6930    7.9045 H     402  UNL402      0.1146
   1609 N           6.5685    2.5631   10.3364 N.3   403  UNL403     -0.3437
   1610 H           6.1268    2.8537   11.2075 H     403  UNL403      0.1146
   1611 H           7.2941    3.2527   10.1457 H     403  UNL403      0.1146
   1612 H           7.0560    1.6930   10.5453 H     403  UNL403      0.1146
   1613 N           6.5685    2.5631   12.9773 N.3   404  UNL404     -0.3437
   1614 H           6.1268    2.8537   13.8484 H     404  UNL404      0.1146
   1615 H           7.2941    3.2527   12.7866 H     404  UNL404      0.1146
   1616 H           7.0560    1.6930   13.1862 H     404  UNL404      0.1146
   1617 N           6.5685    2.5631   15.6181 N.3   405  UNL405     -0.3437
   1618 H           6.1268    2.8537   16.4892 H     405  UNL405      0.1146
   1619 H           7.2941    3.2527   15.4274 H     405  UNL405      0.1146
   1620 H           7.0560    1.6930   15.8270 H     405  UNL405      0.1146
   1621 N           6.5685    2.5631   18.2589 N.3   406  UNL406     -0.3437
   1622 H           6.1268    2.8537   19.1300 H     406  UNL406      0.1146
   1623 H           7.2941    3.2527   18.0682 H     406  UNL406      0.1146
   1624 H           7.0560    1.6930   18.4678 H     406  UNL406      0.1146
   1625 N           6.5685    2.7852   21.2331 N.3   407  UNL407     -0.3437
   1626 H           6.1268    1.9134   20.9446 H     407  UNL407      0.1146
   1627 H           7.2941    2.5253   21.8997 H     407  UNL407      0.1146
   1628 H           7.0560    3.1385   20.4110 H     407  UNL407      0.1146
   1629 N           6.5685    5.6050    0.1065 N.3   408  UNL408     -0.3437
   1630 H           6.1268    4.7332   -0.1820 H     408  UNL408      0.1146
   1631 H           7.2941    5.3450    0.7731 H     408  UNL408      0.1146
   1632 H           7.0560    5.9583   -0.7156 H     408  UNL408      0.1146
   1633 N           6.5685    5.6050    2.7473 N.3   409  UNL409     -0.3437
   1634 H           6.1268    4.7332    2.4588 H     409  UNL409      0.1146
   1635 H           7.2941    5.3450    3.4139 H     409  UNL409      0.1146
   1636 H           7.0560    5.9583    1.9252 H     409  UNL409      0.1146
   1637 N           6.5685    5.6050    5.3881 N.3   410  UNL410     -0.3437
   1638 H           6.1268    4.7332    5.0996 H     410  UNL410      0.1146
   1639 H           7.2941    5.3450    6.0547 H     410  UNL410      0.1146
   1640 H           7.0560    5.9583    4.5660 H     410  UNL410      0.1146
   1641 N           6.5685    5.6050    8.0289 N.3   411  UNL411     -0.3437
   1642 H           6.1268    4.7332    7.7404 H     411  UNL411      0.1146
   1643 H           7.2941    5.3450    8.6955 H     411  UNL411      0.1146
   1644 H           7.0560    5.9583    7.2068 H     411  UNL411      0.1146
   1645 N           6.5685    5.3829   10.3364 N.3   412  UNL412     -0.3437
   1646 H           6.1268    5.6735   11.2075 H     412  UNL412      0.1146
   1647 H           7.2941    6.0725   10.1457 H     412  UNL412      0.1146
   1648 H           7.0560    4.5128   10.5453 H     412  UNL412      0.1146
   1649 N           6.5685    5.3829   12.9773 N.3   413  UNL413     -0.3437
   1650 H           6.1268    5.6735   13.8484 H     413  UNL413      0.1146
   1651 H           7.2941    6.0725   12.7866 H     413  UNL413      0.1146
   1652 H           7.0560    4.5128   13.1862 H     413  UNL413      0.1146
   1653 N           6.5685    5.3829   15.6181 N.3   414  UNL414     -0.3437
   1654 H           6.1268    5.6735   16.4892 H     414  UNL414      0.1146
   1655 H           7.2941    6.0725   15.4274 H     414  UNL414      0.1146
   1656 H           7.0560    4.5128   15.8270 H     414  UNL414      0.1146
   1657 N           6.5685    5.3829   18.2589 N.3   415  UNL415     -0.3437
   1658 H           6.1268    5.6735   19.1300 H     415  UNL415      0.1146
   1659 H           7.2941    6.0725   18.0682 H     415  UNL415      0.1146
   1660 H           7.0560    4.5128   18.4678 H     415  UNL415      0.1146
   1661 N           6.5685    5.3829   20.8997 N.3   416  UNL416     -0.3437
   1662 H           6.1268    5.6735   21.7708 H     416  UNL416      0.1146
   1663 H           7.2941    6.0725   20.7090 H     416  UNL416      0.1146
   1664 H           7.0560    4.5128   21.1086 H     416  UNL416      0.1146
   1665 N           6.5685    8.2026   -0.2269 N.3   417  UNL417     -0.3437
   1666 H           6.1268    8.4932    0.6442 H     417  UNL417      0.1146
   1667 H           7.2941    8.8922   -0.4176 H     417  UNL417      0.1146
   1668 H           7.0560    7.3325   -0.0180 H     417  UNL417      0.1146
   1669 N           6.5685    8.2026    2.4140 N.3   418  UNL418     -0.3437
   1670 H           6.1268    8.4932    3.2851 H     418  UNL418      0.1146
   1671 H           7.2941    8.8922    2.2233 H     418  UNL418      0.1146
   1672 H           7.0560    7.3325    2.6229 H     418  UNL418      0.1146
   1673 N           6.5685    8.2026    5.0548 N.3   419  UNL419     -0.3437
   1674 H           6.1268    8.4932    5.9259 H     419  UNL419      0.1146
   1675 H           7.2941    8.8922    4.8641 H     419  UNL419      0.1146
   1676 H           7.0560    7.3325    5.2637 H     419  UNL419      0.1146
   1677 N           6.5685    8.2026    7.6956 N.3   420  UNL420     -0.3437
   1678 H           6.1268    8.4932    8.5667 H     420  UNL420      0.1146
   1679 H           7.2941    8.8922    7.5049 H     420  UNL420      0.1146
   1680 H           7.0560    7.3325    7.9045 H     420  UNL420      0.1146
   1681 N           4.5685    8.2026   10.3364 N.3   421  UNL421     -0.3437
   1682 H           4.1268    8.4932   11.2075 H     421  UNL421      0.1146
   1683 H           5.2941    8.8922   10.1457 H     421  UNL421      0.1146
   1684 H           5.0560    7.3325   10.5453 H     421  UNL421      0.1146
   1685 N           6.6987    8.2026   13.4871 N.3   422  UNL422     -0.3437
   1686 H           7.6609    8.4932   13.3197 H     422  UNL422      0.1146
   1687 H           6.1117    8.8922   13.0199 H     422  UNL422      0.1146
   1688 H           6.5743    7.3325   12.9716 H     422  UNL422      0.1146
   1689 N           6.5685    8.2026   15.6181 N.3   423  UNL423     -0.3437
   1690 H           6.1268    8.4932   16.4892 H     423  UNL423      0.1146
   1691 H           7.2941    8.8922   15.4274 H     423  UNL423      0.1146
   1692 H           7.0560    7.3325   15.8270 H     423  UNL423      0.1146
   1693 N           6.5685    8.2026   18.2589 N.3   424  UNL424     -0.3437
   1694 H           6.1268    8.4932   19.1300 H     424  UNL424      0.1146
   1695 H           7.2941    8.8922   18.0682 H     424  UNL424      0.1146
   1696 H           7.0560    7.3325   18.4678 H     424  UNL424      0.1146
   1697 N           6.5685    8.2026   20.8997 N.3   425  UNL425     -0.3437
   1698 H           6.1268    8.4932   21.7708 H     425  UNL425      0.1146
   1699 H           7.2941    8.8922   20.7090 H     425  UNL425      0.1146
   1700 H           7.0560    7.3325   21.1086 H     425  UNL425      0.1146
   1701 N           6.5685   11.2445    0.1065 N.3   426  UNL426     -0.3437
   1702 H           6.1268   10.3727   -0.1820 H     426  UNL426      0.1146
   1703 H           7.2941   10.9846    0.7731 H     426  UNL426      0.1146
   1704 H           7.0560   11.5979   -0.7156 H     426  UNL426      0.1146
   1705 N           4.6987   11.0224    2.9238 N.3   427  UNL427     -0.3437
   1706 H           5.6609   11.3130    2.7564 H     427  UNL427      0.1146
   1707 H           4.1117   11.7120    2.4566 H     427  UNL427      0.1146
   1708 H           4.5743   10.1523    2.4083 H     427  UNL427      0.1146
   1709 N           6.5685   11.2445    5.3881 N.3   428  UNL428     -0.3437
   1710 H           6.1268   10.3727    5.0996 H     428  UNL428      0.1146
   1711 H           7.2941   10.9846    6.0547 H     428  UNL428      0.1146
   1712 H           7.0560   11.5979    4.5660 H     428  UNL428      0.1146
   1713 N           6.5685   11.2445    8.0289 N.3   429  UNL429     -0.3437
   1714 H           6.1268   10.3727    7.7404 H     429  UNL429      0.1146
   1715 H           7.2941   10.9846    8.6955 H     429  UNL429      0.1146
   1716 H           7.0560   11.5979    7.2068 H     429  UNL429      0.1146
   1717 N           6.5685   11.0224   10.3364 N.3   430  UNL430     -0.3437
   1718 H           6.1268   11.3130   11.2075 H     430  UNL430      0.1146
   1719 H           7.2941   11.7120   10.1457 H     430  UNL430      0.1146
   1720 H           7.0560   10.1523   10.5453 H     430  UNL430      0.1146
   1721 N           6.5685   11.0224   12.9773 N.3   431  UNL431     -0.3437
   1722 H           6.1268   11.3130   13.8484 H     431  UNL431      0.1146
   1723 H           7.2941   11.7120   12.7866 H     431  UNL431      0.1146
   1724 H           7.0560   10.1523   13.1862 H     431  UNL431      0.1146
   1725 N           6.7751   11.2378   15.6126 N.3   432  UNL432     -0.3437
   1726 H           6.1537   11.5607   16.3528 H     432  UNL432      0.1146
   1727 H           7.6813   11.0855   16.0532 H     432  UNL432      0.1146
   1728 H           6.4355   10.3157   15.3430 H     432  UNL432      0.1146
   1729 N           6.5685   11.2445   18.5922 N.3   433  UNL433     -0.3437
   1730 H           6.1268   10.3727   18.3037 H     433  UNL433      0.1146
   1731 H           7.2941   10.9846   19.2588 H     433  UNL433      0.1146
   1732 H           7.0560   11.5979   17.7701 H     433  UNL433      0.1146
   1733 N           6.5685   11.2445   21.2331 N.3   434  UNL434     -0.3437
   1734 H           6.1268   10.3727   20.9446 H     434  UNL434      0.1146
   1735 H           7.2941   10.9846   21.8997 H     434  UNL434      0.1146
   1736 H           7.0560   11.5979   20.4110 H     434  UNL434      0.1146
   1737 N           6.5685   14.0643    0.1065 N.3   435  UNL435     -0.3437
   1738 H           6.1268   13.1925   -0.1820 H     435  UNL435      0.1146
   1739 H           7.2941   13.8044    0.7731 H     435  UNL435      0.1146
   1740 H           7.0560   14.4176   -0.7156 H     435  UNL435      0.1146
   1741 N           6.5685   14.0643    2.7473 N.3   436  UNL436     -0.3437
   1742 H           6.1268   13.1925    2.4588 H     436  UNL436      0.1146
   1743 H           7.2941   13.8044    3.4139 H     436  UNL436      0.1146
   1744 H           7.0560   14.4176    1.9252 H     436  UNL436      0.1146
   1745 N           6.5685   14.0643    5.3881 N.3   437  UNL437     -0.3437
   1746 H           6.1268   13.1925    5.0996 H     437  UNL437      0.1146
   1747 H           7.2941   13.8044    6.0547 H     437  UNL437      0.1146
   1748 H           7.0560   14.4176    4.5660 H     437  UNL437      0.1146
   1749 N           6.5685   14.0643    8.0289 N.3   438  UNL438     -0.3437
   1750 H           6.1268   13.1925    7.7404 H     438  UNL438      0.1146
   1751 H           7.2941   13.8044    8.6955 H     438  UNL438      0.1146
   1752 H           7.0560   14.4176    7.2068 H     438  UNL438      0.1146
   1753 N           6.5685   13.8422   10.3364 N.3   439  UNL439     -0.3437
   1754 H           6.1268   14.1328   11.2075 H     439  UNL439      0.1146
   1755 H           7.2941   14.5318   10.1457 H     439  UNL439      0.1146
   1756 H           7.0560   12.9721   10.5453 H     439  UNL439      0.1146
   1757 N           4.5685   13.8422   12.9773 N.3   440  UNL440     -0.3437
   1758 H           4.1268   14.1328   13.8484 H     440  UNL440      0.1146
   1759 H           5.2941   14.5318   12.7866 H     440  UNL440      0.1146
   1760 H           5.0560   12.9721   13.1862 H     440  UNL440      0.1146
   1761 N           4.5685   13.8422   15.6181 N.3   441  UNL441     -0.3437
   1762 H           4.1268   14.1328   16.4892 H     441  UNL441      0.1146
   1763 H           5.2941   14.5318   15.4274 H     441  UNL441      0.1146
   1764 H           5.0560   12.9721   15.8270 H     441  UNL441      0.1146
   1765 N           6.5685   14.0643   18.5922 N.3   442  UNL442     -0.3437
   1766 H           6.1268   13.1925   18.3037 H     442  UNL442      0.1146
   1767 H           7.2941   13.8044   19.2588 H     442  UNL442      0.1146
   1768 H           7.0560   14.4176   17.7701 H     442  UNL442      0.1146
   1769 N           6.5685   14.0643   21.2331 N.3   443  UNL443     -0.3437
   1770 H           6.1268   13.1925   20.9446 H     443  UNL443      0.1146
   1771 H           7.2941   13.8044   21.8997 H     443  UNL443      0.1146
   1772 H           7.0560   14.4176   20.4110 H     443  UNL443      0.1146
   1773 N           4.5685   16.8841    0.7473 N.3   444  UNL444     -0.3437
   1774 H           4.1268   16.0123    0.4588 H     444  UNL444      0.1146
   1775 H           5.2941   16.6241    1.4139 H     444  UNL444      0.1146
   1776 H           5.0560   17.2374   -0.0748 H     444  UNL444      0.1146
   1777 N           6.5685   16.6619    3.0548 N.3   445  UNL445     -0.3437
   1778 H           6.1268   16.9525    3.9259 H     445  UNL445      0.1146
   1779 H           7.2941   17.3516    2.8641 H     445  UNL445      0.1146
   1780 H           7.0560   15.7919    3.2637 H     445  UNL445      0.1146
   1781 N           6.5685   16.6619    5.6956 N.3   446  UNL446     -0.3437
   1782 H           6.1268   16.9525    6.5667 H     446  UNL446      0.1146
   1783 H           7.2941   17.3516    5.5049 H     446  UNL446      0.1146
   1784 H           7.0560   15.7919    5.9045 H     446  UNL446      0.1146
   1785 N           6.5685   16.6619   10.3364 N.3   447  UNL447     -0.3437
   1786 H           6.1268   16.9525   11.2075 H     447  UNL447      0.1146
   1787 H           7.2941   17.3516   10.1457 H     447  UNL447      0.1146
   1788 H           7.0560   15.7919   10.5453 H     447  UNL447      0.1146
   1789 N           6.5685   16.6619   12.9773 N.3   448  UNL448     -0.3437
   1790 H           6.1268   16.9525   13.8484 H     448  UNL448      0.1146
   1791 H           7.2941   17.3516   12.7866 H     448  UNL448      0.1146
   1792 H           7.0560   15.7919   13.1862 H     448  UNL448      0.1146
   1793 N           6.5685   16.6619   15.6181 N.3   449  UNL449     -0.3437
   1794 H           6.1268   16.9525   16.4892 H     449  UNL449      0.1146
   1795 H           7.2941   17.3516   15.4274 H     449  UNL449      0.1146
   1796 H           7.0560   15.7919   15.8270 H     449  UNL449      0.1146
   1797 N           6.5685   16.8841   18.5922 N.3   450  UNL450     -0.3437
   1798 H           6.1268   16.0123   18.3037 H     450  UNL450      0.1146
   1799 H           7.2941   16.6241   19.2588 H     450  UNL450      0.1146
   1800 H           7.0560   17.2374   17.7701 H     450  UNL450      0.1146
   1801 N           6.5685   16.8841   21.2331 N.3   451  UNL451     -0.3437
   1802 H           6.1268   16.0123   20.9446 H     451  UNL451      0.1146
   1803 H           7.2941   16.6241   21.8997 H     451  UNL451      0.1146
   1804 H           7.0560   17.2374   20.4110 H     451  UNL451      0.1146
   1805 N           6.5685   19.7038    0.1065 N.3   452  UNL452     -0.3437
   1806 H           6.1268   18.8320   -0.1820 H     452  UNL452      0.1146
   1807 H           7.2941   19.4439    0.7731 H     452  UNL452      0.1146
   1808 H           7.0560   20.0572   -0.7156 H     452  UNL452      0.1146
   1809 N           6.5685   19.7038    2.7473 N.3   453  UNL453     -0.3437
   1810 H           6.1268   18.8320    2.4588 H     453  UNL453      0.1146
   1811 H           7.2941   19.4439    3.4139 H     453  UNL453      0.1146
   1812 H           7.0560   20.0572    1.9252 H     453  UNL453      0.1146
   1813 N           6.5685   19.7038    5.3881 N.3   454  UNL454     -0.3437
   1814 H           6.1268   18.8320    5.0996 H     454  UNL454      0.1146
   1815 H           7.2941   19.4439    6.0547 H     454  UNL454      0.1146
   1816 H           7.0560   20.0572    4.5660 H     454  UNL454      0.1146
   1817 N           6.5685   19.7038    8.0289 N.3   455  UNL455     -0.3437
   1818 H           6.1268   18.8320    7.7404 H     455  UNL455      0.1146
   1819 H           7.2941   19.4439    8.6955 H     455  UNL455      0.1146
   1820 H           7.0560   20.0572    7.2068 H     455  UNL455      0.1146
   1821 N           6.5685   19.4817   10.3364 N.3   456  UNL456     -0.3437
   1822 H           6.1268   19.7723   11.2075 H     456  UNL456      0.1146
   1823 H           7.2941   20.1713   10.1457 H     456  UNL456      0.1146
   1824 H           7.0560   18.6116   10.5453 H     456  UNL456      0.1146
   1825 N           6.7751   19.6971   12.9718 N.3   457  UNL457     -0.3437
   1826 H           6.1537   20.0200   13.7120 H     457  UNL457      0.1146
   1827 H           7.6813   19.5448   13.4124 H     457  UNL457      0.1146
   1828 H           6.4355   18.7751   12.7021 H     457  UNL457      0.1146
   1829 N           6.5321   19.3889   15.6979 N.3   458  UNL458     -0.3437
   1830 H           6.6598   19.0057   16.6334 H     458  UNL458      0.1146
   1831 H           6.4370   20.3964   15.8176 H     458  UNL458      0.1146
   1832 H           7.4167   19.2460   15.2127 H     458  UNL458      0.1146
   1833 N           6.5685   19.7038   18.5922 N.3   459  UNL459     -0.3437
   1834 H           6.1268   18.8320   18.3037 H     459  UNL459      0.1146
   1835 H           7.2941   19.4439   19.2588 H     459  UNL459      0.1146
   1836 H           7.0560   20.0572   17.7701 H     459  UNL459      0.1146
   1837 N           6.5685   19.7038   21.2331 N.3   460  UNL460     -0.3437
   1838 H           6.1268   18.8320   20.9446 H     460  UNL460      0.1146
   1839 H           7.2941   19.4439   21.8997 H     460  UNL460      0.1146
   1840 H           7.0560   20.0572   20.4110 H     460  UNL460      0.1146
   1841 N           6.5685   22.5236    0.1065 N.3   461  UNL461     -0.3437
   1842 H           6.1268   21.6518   -0.1820 H     461  UNL461      0.1146
   1843 H           7.2941   22.2637    0.7731 H     461  UNL461      0.1146
   1844 H           7.0560   22.8770   -0.7156 H     461  UNL461      0.1146
   1845 N           4.6987   22.3015    2.9238 N.3   462  UNL462     -0.3437
   1846 H           5.6609   22.5921    2.7564 H     462  UNL462      0.1146
   1847 H           4.1117   22.9911    2.4566 H     462  UNL462      0.1146
   1848 H           4.5743   21.4314    2.4083 H     462  UNL462      0.1146
   1849 N           6.5685   22.5236    5.3881 N.3   463  UNL463     -0.3437
   1850 H           6.1268   21.6518    5.0996 H     463  UNL463      0.1146
   1851 H           7.2941   22.2637    6.0547 H     463  UNL463      0.1146
   1852 H           7.0560   22.8770    4.5660 H     463  UNL463      0.1146
   1853 N           6.5685   22.5236    8.0289 N.3   464  UNL464     -0.3437
   1854 H           6.1268   21.6518    7.7404 H     464  UNL464      0.1146
   1855 H           7.2941   22.2637    8.6955 H     464  UNL464      0.1146
   1856 H           7.0560   22.8770    7.2068 H     464  UNL464      0.1146
   1857 N           6.5685   22.3015   10.3364 N.3   465  UNL465     -0.3437
   1858 H           6.1268   22.5921   11.2075 H     465  UNL465      0.1146
   1859 H           7.2941   22.9911   10.1457 H     465  UNL465      0.1146
   1860 H           7.0560   21.4314   10.5453 H     465  UNL465      0.1146
   1861 N           6.5685   22.3015   12.9773 N.3   466  UNL466     -0.3437
   1862 H           6.1268   22.5921   13.8484 H     466  UNL466      0.1146
   1863 H           7.2941   22.9911   12.7866 H     466  UNL466      0.1146
   1864 H           7.0560   21.4314   13.1862 H     466  UNL466      0.1146
   1865 N           6.5685   22.3015   15.6181 N.3   467  UNL467     -0.3437
   1866 H           6.1268   22.5921   16.4892 H     467  UNL467      0.1146
   1867 H           7.2941   22.9911   15.4274 H     467  UNL467      0.1146
   1868 H           7.0560   21.4314   15.8270 H     467  UNL467      0.1146
   1869 N           6.5685   22.5236   18.5922 N.3   468  UNL468     -0.3437
   1870 H           6.1268   21.6518   18.3037 H     468  UNL468      0.1146
   1871 H           7.2941   22.2637   19.2588 H     468  UNL468      0.1146
   1872 H           7.0560   22.8770   17.7701 H     468  UNL468      0.1146
   1873 N           4.7751   22.5169   20.8943 N.3   469  UNL469     -0.3437
   1874 H           4.1537   22.8398   21.6345 H     469  UNL469      0.1146
   1875 H           5.6813   22.3646   21.3348 H     469  UNL469      0.1146
   1876 H           4.4355   21.5948   20.6246 H     469  UNL469      0.1146
   1877 N           6.5685   25.1213    0.4140 N.3   470  UNL470     -0.3437
   1878 H           6.1268   25.4119    1.2851 H     470  UNL470      0.1146
   1879 H           7.2941   25.8109    0.2233 H     470  UNL470      0.1146
   1880 H           7.0560   24.2512    0.6229 H     470  UNL470      0.1146
   1881 N           6.8548   25.3198    3.0548 N.3   471  UNL471     -0.3437
   1882 H           7.3519   25.4997    3.9259 H     471  UNL471      0.1146
   1883 H           6.9730   24.3258    2.8641 H     471  UNL471      0.1146
   1884 H           5.8659   25.4499    3.2637 H     471  UNL471      0.1146
   1885 N           6.8548   25.3198    5.6956 N.3   472  UNL472     -0.3437
   1886 H           7.3519   25.4997    6.5667 H     472  UNL472      0.1146
   1887 H           6.9730   24.3258    5.5049 H     472  UNL472      0.1146
   1888 H           5.8659   25.4499    5.9045 H     472  UNL472      0.1146
   1889 N           6.5685   24.9872   10.7139 N.3   473  UNL473     -0.3437
   1890 H           6.1268   25.5111    9.9597 H     473  UNL473      0.1146
   1891 H           7.2941   24.4217   10.2755 H     473  UNL473      0.1146
   1892 H           7.0560   25.6752   11.2859 H     473  UNL473      0.1146
   1893 N           6.6987   25.1213   13.4871 N.3   474  UNL474     -0.3437
   1894 H           7.6609   25.4119   13.3197 H     474  UNL474      0.1146
   1895 H           6.1117   25.8109   13.0199 H     474  UNL474      0.1146
   1896 H           6.5743   24.2512   12.9716 H     474  UNL474      0.1146
   1897 N           6.8548   25.3198   15.6181 N.3   475  UNL475     -0.3437
   1898 H           7.3519   25.4997   16.4892 H     475  UNL475      0.1146
   1899 H           6.9730   24.3258   15.4274 H     475  UNL475      0.1146
   1900 H           5.8659   25.4499   15.8270 H     475  UNL475      0.1146
   1901 N           6.5685   25.3434   18.5922 N.3   476  UNL476     -0.3437
   1902 H           6.1268   24.4716   18.3037 H     476  UNL476      0.1146
   1903 H           7.2941   25.0835   19.2588 H     476  UNL476      0.1146
   1904 H           7.0560   25.6967   17.7701 H     476  UNL476      0.1146
   1905 N           6.5685   25.3434   21.2331 N.3   477  UNL477     -0.3437
   1906 H           6.1268   24.4716   20.9446 H     477  UNL477      0.1146
   1907 H           7.2941   25.0835   21.8997 H     477  UNL477      0.1146
   1908 H           7.0560   25.6967   20.4110 H     477  UNL477      0.1146
   1909 N           6.5685   28.1632    0.1065 N.3   478  UNL478     -0.3437
   1910 H           6.1268   27.2914   -0.1820 H     478  UNL478      0.1146
   1911 H           7.2941   27.9032    0.7731 H     478  UNL478      0.1146
   1912 H           7.0560   28.5165   -0.7156 H     478  UNL478      0.1146
   1913 N           6.5685   28.1632    2.7473 N.3   479  UNL479     -0.3437
   1914 H           6.1268   27.2914    2.4588 H     479  UNL479      0.1146
   1915 H           7.2941   27.9032    3.4139 H     479  UNL479      0.1146
   1916 H           7.0560   28.5165    1.9252 H     479  UNL479      0.1146
   1917 N           6.5685   28.1632    5.3881 N.3   480  UNL480     -0.3437
   1918 H           6.1268   27.2914    5.0996 H     480  UNL480      0.1146
   1919 H           7.2941   27.9032    6.0547 H     480  UNL480      0.1146
   1920 H           7.0560   28.5165    4.5660 H     480  UNL480      0.1146
   1921 N           6.5685   28.1632    8.0289 N.3   481  UNL481     -0.3437
   1922 H           6.1268   27.2914    7.7404 H     481  UNL481      0.1146
   1923 H           7.2941   27.9032    8.6955 H     481  UNL481      0.1146
   1924 H           7.0560   28.5165    7.2068 H     481  UNL481      0.1146
   1925 N           6.5685   28.1632   10.6698 N.3   482  UNL482     -0.3437
   1926 H           6.1268   27.2914   10.3813 H     482  UNL482      0.1146
   1927 H           7.2941   27.9032   11.3364 H     482  UNL482      0.1146
   1928 H           7.0560   28.5165    9.8477 H     482  UNL482      0.1146
   1929 N           6.5685   28.1632   13.3106 N.3   483  UNL483     -0.3437
   1930 H           6.1268   27.2914   13.0221 H     483  UNL483      0.1146
   1931 H           7.2941   27.9032   13.9772 H     483  UNL483      0.1146
   1932 H           7.0560   28.5165   12.4885 H     483  UNL483      0.1146
   1933 N           6.5685   28.1632   15.9514 N.3   484  UNL484     -0.3437
   1934 H           6.1268   27.2914   15.6629 H     484  UNL484      0.1146
   1935 H           7.2941   27.9032   16.6180 H     484  UNL484      0.1146
   1936 H           7.0560   28.5165   15.1293 H     484  UNL484      0.1146
   1937 N           6.5685   28.1632   18.5922 N.3   485  UNL485     -0.3437
   1938 H           6.1268   27.2914   18.3037 H     485  UNL485      0.1146
   1939 H           7.2941   27.9032   19.2588 H     485  UNL485      0.1146
   1940 H           7.0560   28.5165   17.7701 H     485  UNL485      0.1146
   1941 N           6.5685   28.1632   21.2331 N.3   486  UNL486     -0.3437
   1942 H           6.1268   27.2914   20.9446 H     486  UNL486      0.1146
   1943 H           7.2941   27.9032   21.8997 H     486  UNL486      0.1146
   1944 H           7.0560   28.5165   20.4110 H     486  UNL486      0.1146
   1945 N           6.5685   30.7608   -0.2269 N.3   487  UNL487     -0.3437
   1946 H           6.1268   31.0514    0.6442 H     487  UNL487      0.1146
   1947 H           7.2941   31.4504   -0.4176 H     487  UNL487      0.1146
   1948 H           7.0560   29.8907   -0.0180 H     487  UNL487      0.1146
   1949 N           6.5685   30.7608    2.4140 N.3   488  UNL488     -0.3437
   1950 H           6.1268   31.0514    3.2851 H     488  UNL488      0.1146
   1951 H           7.2941   31.4504    2.2233 H     488  UNL488      0.1146
   1952 H           7.0560   29.8907    2.6229 H     488  UNL488      0.1146
   1953 N           6.5685   30.7608    5.0548 N.3   489  UNL489     -0.3437
   1954 H           6.1268   31.0514    5.9259 H     489  UNL489      0.1146
   1955 H           7.2941   31.4504    4.8641 H     489  UNL489      0.1146
   1956 H           7.0560   29.8907    5.2637 H     489  UNL489      0.1146
   1957 N           6.5685   30.7608    7.6956 N.3   490  UNL490     -0.3437
   1958 H           6.1268   31.0514    8.5667 H     490  UNL490      0.1146
   1959 H           7.2941   31.4504    7.5049 H     490  UNL490      0.1146
   1960 H           7.0560   29.8907    7.9045 H     490  UNL490      0.1146
   1961 N           4.5685   30.7608   10.3364 N.3   491  UNL491     -0.3437
   1962 H           4.1268   31.0514   11.2075 H     491  UNL491      0.1146
   1963 H           5.2941   31.4504   10.1457 H     491  UNL491      0.1146
   1964 H           5.0560   29.8907   10.5453 H     491  UNL491      0.1146
   1965 N           6.5685   30.7608   12.9773 N.3   492  UNL492     -0.3437
   1966 H           6.1268   31.0514   13.8484 H     492  UNL492      0.1146
   1967 H           7.2941   31.4504   12.7866 H     492  UNL492      0.1146
   1968 H           7.0560   29.8907   13.1862 H     492  UNL492      0.1146
   1969 N           6.5685   30.7608   15.6181 N.3   493  UNL493     -0.3437
   1970 H           6.1268   31.0514   16.4892 H     493  UNL493      0.1146
   1971 H           7.2941   31.4504   15.4274 H     493  UNL493      0.1146
   1972 H           7.0560   29.8907   15.8270 H     493  UNL493      0.1146
   1973 N           6.5685   30.7608   18.2589 N.3   494  UNL494     -0.3437
   1974 H           6.1268   31.0514   19.1300 H     494  UNL494      0.1146
   1975 H           7.2941   31.4504   18.0682 H     494  UNL494      0.1146
   1976 H           7.0560   29.8907   18.4678 H     494  UNL494      0.1146
   1977 N           6.5685   30.7608   20.8997 N.3   495  UNL495     -0.3437
   1978 H           6.1268   31.0514   21.7708 H     495  UNL495      0.1146
   1979 H           7.2941   31.4504   20.7090 H     495  UNL495      0.1146
   1980 H           7.0560   29.8907   21.1086 H     495  UNL495      0.1146
   1981 N           6.5685   33.5806   -0.2269 N.3   496  UNL496     -0.3437
   1982 H           6.1268   33.8712    0.6442 H     496  UNL496      0.1146
   1983 H           7.2941   34.2702   -0.4176 H     496  UNL496      0.1146
   1984 H           7.0560   32.7105   -0.0180 H     496  UNL496      0.1146
   1985 N           6.5685   33.5806    2.4140 N.3   497  UNL497     -0.3437
   1986 H           6.1268   33.8712    3.2851 H     497  UNL497      0.1146
   1987 H           7.2941   34.2702    2.2233 H     497  UNL497      0.1146
   1988 H           7.0560   32.7105    2.6229 H     497  UNL497      0.1146
   1989 N           6.5685   33.5806    5.0548 N.3   498  UNL498     -0.3437
   1990 H           6.1268   33.8712    5.9259 H     498  UNL498      0.1146
   1991 H           7.2941   34.2702    4.8641 H     498  UNL498      0.1146
   1992 H           7.0560   32.7105    5.2637 H     498  UNL498      0.1146
   1993 N           6.5685   33.5806    7.6956 N.3   499  UNL499     -0.3437
   1994 H           6.1268   33.8712    8.5667 H     499  UNL499      0.1146
   1995 H           7.2941   34.2702    7.5049 H     499  UNL499      0.1146
   1996 H           7.0560   32.7105    7.9045 H     499  UNL499      0.1146
   1997 N           6.5685   33.5806   10.3364 N.3   500  UNL500     -0.3437
   1998 H           6.1268   33.8712   11.2075 H     500  UNL500      0.1146
   1999 H           7.2941   34.2702   10.1457 H     500  UNL500      0.1146
   2000 H           7.0560   32.7105   10.5453 H     500  UNL500      0.1146
   2001 N           6.5685   33.5806   12.9773 N.3   501  UNL501     -0.3437
   2002 H           6.1268   33.8712   13.8484 H     501  UNL501      0.1146
   2003 H           7.2941   34.2702   12.7866 H     501  UNL501      0.1146
   2004 H           7.0560   32.7105   13.1862 H     501  UNL501      0.1146
   2005 N           6.5685   33.5806   15.6181 N.3   502  UNL502     -0.3437
   2006 H           6.1268   33.8712   16.4892 H     502  UNL502      0.1146
   2007 H           7.2941   34.2702   15.4274 H     502  UNL502      0.1146
   2008 H           7.0560   32.7105   15.8270 H     502  UNL502      0.1146
   2009 N           6.5685   33.5806   18.2589 N.3   503  UNL503     -0.3437
   2010 H           6.1268   33.8712   19.1300 H     503  UNL503      0.1146
   2011 H           7.2941   34.2702   18.0682 H     503  UNL503      0.1146
   2012 H           7.0560   32.7105   18.4678 H     503  UNL503      0.1146
   2013 N           6.5685   33.5806   20.8997 N.3   504  UNL504     -0.3437
   2014 H           6.1268   33.8712   21.7708 H     504  UNL504      0.1146
   2015 H           7.2941   34.2702   20.7090 H     504  UNL504      0.1146
   2016 H           7.0560   32.7105   21.1086 H     504  UNL504      0.1146
   2017 N           6.5131   36.5865    0.6601 N.3   505  UNL505     -0.3437
   2018 H           6.9292   36.3679    1.5642 H     505  UNL505      0.1146
   2019 H           7.2371   37.0652    0.1260 H     505  UNL505      0.1146
   2020 H           6.3662   35.6919    0.1948 H     505  UNL505      0.1146
   2021 N           6.5131   36.5865    3.3009 N.3   506  UNL506     -0.3437
   2022 H           6.9292   36.3679    4.2050 H     506  UNL506      0.1146
   2023 H           7.2371   37.0652    2.7669 H     506  UNL506      0.1146
   2024 H           6.3662   35.6919    2.8357 H     506  UNL506      0.1146
   2025 N           6.4848   36.4174    7.8143 N.3   507  UNL507     -0.3437
   2026 H           6.6225   35.8238    8.6311 H     507  UNL507      0.1146
   2027 H           6.7639   37.3554    8.0985 H     507  UNL507      0.1146
   2028 H           7.1745   36.1150    7.1279 H     507  UNL507      0.1146
   2029 N           6.5685   36.4004   10.3364 N.3   508  UNL508     -0.3437
   2030 H           6.1268   36.6910   11.2075 H     508  UNL508      0.1146
   2031 H           7.2941   37.0900   10.1457 H     508  UNL508      0.1146
   2032 H           7.0560   35.5303   10.5453 H     508  UNL508      0.1146
   2033 N           6.5685   36.4004   12.9773 N.3   509  UNL509     -0.3437
   2034 H           6.1268   36.6910   13.8484 H     509  UNL509      0.1146
   2035 H           7.2941   37.0900   12.7866 H     509  UNL509      0.1146
   2036 H           7.0560   35.5303   13.1862 H     509  UNL509      0.1146
   2037 N           6.5685   36.4004   15.6181 N.3   510  UNL510     -0.3437
   2038 H           6.1268   36.6910   16.4892 H     510  UNL510      0.1146
   2039 H           7.2941   37.0900   15.4274 H     510  UNL510      0.1146
   2040 H           7.0560   35.5303   15.8270 H     510  UNL510      0.1146
   2041 N           6.5685   36.4004   18.2589 N.3   511  UNL511     -0.3437
   2042 H           6.1268   36.6910   19.1300 H     511  UNL511      0.1146
   2043 H           7.2941   37.0900   18.0682 H     511  UNL511      0.1146
   2044 H           7.0560   35.5303   18.4678 H     511  UNL511      0.1146
   2045 N           6.5685   36.4004   20.8997 N.3   512  UNL512     -0.3437
   2046 H           6.1268   36.6910   21.7708 H     512  UNL512      0.1146
   2047 H           7.2941   37.0900   20.7090 H     512  UNL512      0.1146
   2048 H           7.0560   35.5303   21.1086 H     512  UNL512      0.1146
   2049 N           6.5685   39.4423    0.1065 N.3   513  UNL513     -0.3437
   2050 H           6.1268   38.5705   -0.1820 H     513  UNL513      0.1146
   2051 H           7.2941   39.1824    0.7731 H     513  UNL513      0.1146
   2052 H           7.0560   39.7956   -0.7156 H     513  UNL513      0.1146
   2053 N           6.5685   39.4423    2.7473 N.3   514  UNL514     -0.3437
   2054 H           6.1268   38.5705    2.4588 H     514  UNL514      0.1146
   2055 H           7.2941   39.1824    3.4139 H     514  UNL514      0.1146
   2056 H           7.0560   39.7956    1.9252 H     514  UNL514      0.1146
   2057 N           6.5685   39.4423    5.3881 N.3   515  UNL515     -0.3437
   2058 H           6.1268   38.5705    5.0996 H     515  UNL515      0.1146
   2059 H           7.2941   39.1824    6.0547 H     515  UNL515      0.1146
   2060 H           7.0560   39.7956    4.5660 H     515  UNL515      0.1146
   2061 N           6.5685   39.4423    8.0289 N.3   516  UNL516     -0.3437
   2062 H           6.1268   38.5705    7.7404 H     516  UNL516      0.1146
   2063 H           7.2941   39.1824    8.6955 H     516  UNL516      0.1146
   2064 H           7.0560   39.7956    7.2068 H     516  UNL516      0.1146
   2065 N           6.5685   39.2202   10.3364 N.3   517  UNL517     -0.3437
   2066 H           6.1268   39.5108   11.2075 H     517  UNL517      0.1146
   2067 H           7.2941   39.9098   10.1457 H     517  UNL517      0.1146
   2068 H           7.0560   38.3501   10.5453 H     517  UNL517      0.1146
   2069 N           6.5685   39.2202   12.9773 N.3   518  UNL518     -0.3437
   2070 H           6.1268   39.5108   13.8484 H     518  UNL518      0.1146
   2071 H           7.2941   39.9098   12.7866 H     518  UNL518      0.1146
   2072 H           7.0560   38.3501   13.1862 H     518  UNL518      0.1146
   2073 N           6.5685   39.2202   15.6181 N.3   519  UNL519     -0.3437
   2074 H           6.1268   39.5108   16.4892 H     519  UNL519      0.1146
   2075 H           7.2941   39.9098   15.4274 H     519  UNL519      0.1146
   2076 H           7.0560   38.3501   15.8270 H     519  UNL519      0.1146
   2077 N           6.5685   39.2202   18.2589 N.3   520  UNL520     -0.3437
   2078 H           6.1268   39.5108   19.1300 H     520  UNL520      0.1146
   2079 H           7.2941   39.9098   18.0682 H     520  UNL520      0.1146
   2080 H           7.0560   38.3501   18.4678 H     520  UNL520      0.1146
   2081 N           6.5685   39.2202   20.8997 N.3   521  UNL521     -0.3437
   2082 H           6.1268   39.5108   21.7708 H     521  UNL521      0.1146
   2083 H           7.2941   39.9098   20.7090 H     521  UNL521      0.1146
   2084 H           7.0560   38.3501   21.1086 H     521  UNL521      0.1146
   2085 N           9.1002   -0.2567   -0.2269 N.3   522  UNL522     -0.3437
   2086 H           8.6585    0.0339    0.6442 H     522  UNL522      0.1146
   2087 H           9.8258    0.4329   -0.4176 H     522  UNL522      0.1146
   2088 H           9.5877   -1.1268   -0.0180 H     522  UNL522      0.1146
   2089 N           9.1002   -0.2567    2.4140 N.3   523  UNL523     -0.3437
   2090 H           8.6585    0.0339    3.2851 H     523  UNL523      0.1146
   2091 H           9.8258    0.4329    2.2233 H     523  UNL523      0.1146
   2092 H           9.5877   -1.1268    2.6229 H     523  UNL523      0.1146
   2093 N           9.1002   -0.2567    5.0548 N.3   524  UNL524     -0.3437
   2094 H           8.6585    0.0339    5.9259 H     524  UNL524      0.1146
   2095 H           9.8258    0.4329    4.8641 H     524  UNL524      0.1146
   2096 H           9.5877   -1.1268    5.2637 H     524  UNL524      0.1146
   2097 N           9.1002   -0.2567    7.6956 N.3   525  UNL525     -0.3437
   2098 H           8.6585    0.0339    8.5667 H     525  UNL525      0.1146
   2099 H           9.8258    0.4329    7.5049 H     525  UNL525      0.1146
   2100 H           9.5877   -1.1268    7.9045 H     525  UNL525      0.1146
   2101 N           9.1002   -0.2567   10.3364 N.3   526  UNL526     -0.3437
   2102 H           8.6585    0.0339   11.2075 H     526  UNL526      0.1146
   2103 H           9.8258    0.4329   10.1457 H     526  UNL526      0.1146
   2104 H           9.5877   -1.1268   10.5453 H     526  UNL526      0.1146
   2105 N           9.1002   -0.3908   13.3547 N.3   527  UNL527     -0.3437
   2106 H           8.6585    0.1332   12.6006 H     527  UNL527      0.1146
   2107 H           9.8258   -0.9563   12.9163 H     527  UNL527      0.1146
   2108 H           9.5877    0.2973   13.9268 H     527  UNL527      0.1146
   2109 N           9.1002   -0.2567   15.6181 N.3   528  UNL528     -0.3437
   2110 H           8.6585    0.0339   16.4892 H     528  UNL528      0.1146
   2111 H           9.8258    0.4329   15.4274 H     528  UNL528      0.1146
   2112 H           9.5877   -1.1268   15.8270 H     528  UNL528      0.1146
   2113 N           9.1002   -0.2567   18.2589 N.3   529  UNL529     -0.3437
   2114 H           8.6585    0.0339   19.1300 H     529  UNL529      0.1146
   2115 H           9.8258    0.4329   18.0682 H     529  UNL529      0.1146
   2116 H           9.5877   -1.1268   18.4678 H     529  UNL529      0.1146
   2117 N           9.1002   -0.2567   20.8997 N.3   530  UNL530     -0.3437
   2118 H           8.6585    0.0339   21.7708 H     530  UNL530      0.1146
   2119 H           9.8258    0.4329   20.7090 H     530  UNL530      0.1146
   2120 H           9.5877   -1.1268   21.1086 H     530  UNL530      0.1146
   2121 N           9.1002    2.5631   -0.2269 N.3   531  UNL531     -0.3437
   2122 H           8.6585    2.8537    0.6442 H     531  UNL531      0.1146
   2123 H           9.8258    3.2527   -0.4176 H     531  UNL531      0.1146
   2124 H           9.5877    1.6930   -0.0180 H     531  UNL531      0.1146
   2125 N           9.1002    2.5631    2.4140 N.3   532  UNL532     -0.3437
   2126 H           8.6585    2.8537    3.2851 H     532  UNL532      0.1146
   2127 H           9.8258    3.2527    2.2233 H     532  UNL532      0.1146
   2128 H           9.5877    1.6930    2.6229 H     532  UNL532      0.1146
   2129 N           9.1002    2.5631    5.0548 N.3   533  UNL533     -0.3437
   2130 H           8.6585    2.8537    5.9259 H     533  UNL533      0.1146
   2131 H           9.8258    3.2527    4.8641 H     533  UNL533      0.1146
   2132 H           9.5877    1.6930    5.2637 H     533  UNL533      0.1146
   2133 N           9.1002    2.5631    7.6956 N.3   534  UNL534     -0.3437
   2134 H           8.6585    2.8537    8.5667 H     534  UNL534      0.1146
   2135 H           9.8258    3.2527    7.5049 H     534  UNL534      0.1146
   2136 H           9.5877    1.6930    7.9045 H     534  UNL534      0.1146
   2137 N           9.1002    2.5631   10.3364 N.3   535  UNL535     -0.3437
   2138 H           8.6585    2.8537   11.2075 H     535  UNL535      0.1146
   2139 H           9.8258    3.2527   10.1457 H     535  UNL535      0.1146
   2140 H           9.5877    1.6930   10.5453 H     535  UNL535      0.1146
   2141 N           9.1002    2.5631   12.9773 N.3   536  UNL536     -0.3437
   2142 H           8.6585    2.8537   13.8484 H     536  UNL536      0.1146
   2143 H           9.8258    3.2527   12.7866 H     536  UNL536      0.1146
   2144 H           9.5877    1.6930   13.1862 H     536  UNL536      0.1146
   2145 N           9.1002    2.5631   15.6181 N.3   537  UNL537     -0.3437
   2146 H           8.6585    2.8537   16.4892 H     537  UNL537      0.1146
   2147 H           9.8258    3.2527   15.4274 H     537  UNL537      0.1146
   2148 H           9.5877    1.6930   15.8270 H     537  UNL537      0.1146
   2149 N           9.1002    2.5631   18.2589 N.3   538  UNL538     -0.3437
   2150 H           8.6585    2.8537   19.1300 H     538  UNL538      0.1146
   2151 H           9.8258    3.2527   18.0682 H     538  UNL538      0.1146
   2152 H           9.5877    1.6930   18.4678 H     538  UNL538      0.1146
   2153 N           9.1002    2.7852   21.2331 N.3   539  UNL539     -0.3437
   2154 H           8.6585    1.9134   20.9446 H     539  UNL539      0.1146
   2155 H           9.8258    2.5253   21.8997 H     539  UNL539      0.1146
   2156 H           9.5877    3.1385   20.4110 H     539  UNL539      0.1146
   2157 N           9.1002    5.6050    0.1065 N.3   540  UNL540     -0.3437
   2158 H           8.6585    4.7332   -0.1820 H     540  UNL540      0.1146
   2159 H           9.8258    5.3450    0.7731 H     540  UNL540      0.1146
   2160 H           9.5877    5.9583   -0.7156 H     540  UNL540      0.1146
   2161 N           9.1002    5.6050    2.7473 N.3   541  UNL541     -0.3437
   2162 H           8.6585    4.7332    2.4588 H     541  UNL541      0.1146
   2163 H           9.8258    5.3450    3.4139 H     541  UNL541      0.1146
   2164 H           9.5877    5.9583    1.9252 H     541  UNL541      0.1146
   2165 N           9.1002    5.6050    5.3881 N.3   542  UNL542     -0.3437
   2166 H           8.6585    4.7332    5.0996 H     542  UNL542      0.1146
   2167 H           9.8258    5.3450    6.0547 H     542  UNL542      0.1146
   2168 H           9.5877    5.9583    4.5660 H     542  UNL542      0.1146
   2169 N           9.1002    5.6050    8.0289 N.3   543  UNL543     -0.3437
   2170 H           8.6585    4.7332    7.7404 H     543  UNL543      0.1146
   2171 H           9.8258    5.3450    8.6955 H     543  UNL543      0.1146
   2172 H           9.5877    5.9583    7.2068 H     543  UNL543      0.1146
   2173 N           9.1002    5.3829   10.3364 N.3   544  UNL544     -0.3437
   2174 H           8.6585    5.6735   11.2075 H     544  UNL544      0.1146
   2175 H           9.8258    6.0725   10.1457 H     544  UNL544      0.1146
   2176 H           9.5877    4.5128   10.5453 H     544  UNL544      0.1146
   2177 N           9.1002    5.3829   12.9773 N.3   545  UNL545     -0.3437
   2178 H           8.6585    5.6735   13.8484 H     545  UNL545      0.1146
   2179 H           9.8258    6.0725   12.7866 H     545  UNL545      0.1146
   2180 H           9.5877    4.5128   13.1862 H     545  UNL545      0.1146
   2181 N           9.1002    5.3829   15.6181 N.3   546  UNL546     -0.3437
   2182 H           8.6585    5.6735   16.4892 H     546  UNL546      0.1146
   2183 H           9.8258    6.0725   15.4274 H     546  UNL546      0.1146
   2184 H           9.5877    4.5128   15.8270 H     546  UNL546      0.1146
   2185 N           9.1002    5.3829   18.2589 N.3   547  UNL547     -0.3437
   2186 H           8.6585    5.6735   19.1300 H     547  UNL547      0.1146
   2187 H           9.8258    6.0725   18.0682 H     547  UNL547      0.1146
   2188 H           9.5877    4.5128   18.4678 H     547  UNL547      0.1146
   2189 N           9.1002    5.3829   20.8997 N.3   548  UNL548     -0.3437
   2190 H           8.6585    5.6735   21.7708 H     548  UNL548      0.1146
   2191 H           9.8258    6.0725   20.7090 H     548  UNL548      0.1146
   2192 H           9.5877    4.5128   21.1086 H     548  UNL548      0.1146
   2193 N           9.1002    8.2026   -0.2269 N.3   549  UNL549     -0.3437
   2194 H           8.6585    8.4932    0.6442 H     549  UNL549      0.1146
   2195 H           9.8258    8.8922   -0.4176 H     549  UNL549      0.1146
   2196 H           9.5877    7.3325   -0.0180 H     549  UNL549      0.1146
   2197 N           9.1002    8.2026    2.4140 N.3   550  UNL550     -0.3437
   2198 H           8.6585    8.4932    3.2851 H     550  UNL550      0.1146
   2199 H           9.8258    8.8922    2.2233 H     550  UNL550      0.1146
   2200 H           9.5877    7.3325    2.6229 H     550  UNL550      0.1146
   2201 N           9.1002    8.2026    5.0548 N.3   551  UNL551     -0.3437
   2202 H           8.6585    8.4932    5.9259 H     551  UNL551      0.1146
   2203 H           9.8258    8.8922    4.8641 H     551  UNL551      0.1146
   2204 H           9.5877    7.3325    5.2637 H     551  UNL551      0.1146
   2205 N           9.1002    8.2026    7.6956 N.3   552  UNL552     -0.3437
   2206 H           8.6585    8.4932    8.5667 H     552  UNL552      0.1146
   2207 H           9.8258    8.8922    7.5049 H     552  UNL552      0.1146
   2208 H           9.5877    7.3325    7.9045 H     552  UNL552      0.1146
   2209 N           7.1002    8.2026   10.3364 N.3   553  UNL553     -0.3437
   2210 H           6.6585    8.4932   11.2075 H     553  UNL553      0.1146
   2211 H           7.8258    8.8922   10.1457 H     553  UNL553      0.1146
   2212 H           7.5877    7.3325   10.5453 H     553  UNL553      0.1146
   2213 N           9.2304    8.2026   13.4871 N.3   554  UNL554     -0.3437
   2214 H          10.1926    8.4932   13.3197 H     554  UNL554      0.1146
   2215 H           8.6434    8.8922   13.0199 H     554  UNL554      0.1146
   2216 H           9.1060    7.3325   12.9716 H     554  UNL554      0.1146
   2217 N           9.1002    8.2026   15.6181 N.3   555  UNL555     -0.3437
   2218 H           8.6585    8.4932   16.4892 H     555  UNL555      0.1146
   2219 H           9.8258    8.8922   15.4274 H     555  UNL555      0.1146
   2220 H           9.5877    7.3325   15.8270 H     555  UNL555      0.1146
   2221 N           9.1002    8.2026   18.2589 N.3   556  UNL556     -0.3437
   2222 H           8.6585    8.4932   19.1300 H     556  UNL556      0.1146
   2223 H           9.8258    8.8922   18.0682 H     556  UNL556      0.1146
   2224 H           9.5877    7.3325   18.4678 H     556  UNL556      0.1146
   2225 N           9.1002    8.2026   20.8997 N.3   557  UNL557     -0.3437
   2226 H           8.6585    8.4932   21.7708 H     557  UNL557      0.1146
   2227 H           9.8258    8.8922   20.7090 H     557  UNL557      0.1146
   2228 H           9.5877    7.3325   21.1086 H     557  UNL557      0.1146
   2229 N           9.1002   11.2445    0.1065 N.3   558  UNL558     -0.3437
   2230 H           8.6585   10.3727   -0.1820 H     558  UNL558      0.1146
   2231 H           9.8258   10.9846    0.7731 H     558  UNL558      0.1146
   2232 H           9.5877   11.5979   -0.7156 H     558  UNL558      0.1146
   2233 N           7.2304   11.0224    2.9238 N.3   559  UNL559     -0.3437
   2234 H           8.1926   11.3130    2.7564 H     559  UNL559      0.1146
   2235 H           6.6434   11.7120    2.4566 H     559  UNL559      0.1146
   2236 H           7.1060   10.1523    2.4083 H     559  UNL559      0.1146
   2237 N           9.1002   11.2445    5.3881 N.3   560  UNL560     -0.3437
   2238 H           8.6585   10.3727    5.0996 H     560  UNL560      0.1146
   2239 H           9.8258   10.9846    6.0547 H     560  UNL560      0.1146
   2240 H           9.5877   11.5979    4.5660 H     560  UNL560      0.1146
   2241 N           9.1002   11.2445    8.0289 N.3   561  UNL561     -0.3437
   2242 H           8.6585   10.3727    7.7404 H     561  UNL561      0.1146
   2243 H           9.8258   10.9846    8.6955 H     561  UNL561      0.1146
   2244 H           9.5877   11.5979    7.2068 H     561  UNL561      0.1146
   2245 N           9.1002   11.0224   10.3364 N.3   562  UNL562     -0.3437
   2246 H           8.6585   11.3130   11.2075 H     562  UNL562      0.1146
   2247 H           9.8258   11.7120   10.1457 H     562  UNL562      0.1146
   2248 H           9.5877   10.1523   10.5453 H     562  UNL562      0.1146
   2249 N           9.1002   11.0224   12.9773 N.3   563  UNL563     -0.3437
   2250 H           8.6585   11.3130   13.8484 H     563  UNL563      0.1146
   2251 H           9.8258   11.7120   12.7866 H     563  UNL563      0.1146
   2252 H           9.5877   10.1523   13.1862 H     563  UNL563      0.1146
   2253 N           9.1002   10.8883   15.9955 N.3   564  UNL564     -0.3437
   2254 H           8.6585   11.4123   15.2414 H     564  UNL564      0.1146
   2255 H           9.8258   10.3228   15.5572 H     564  UNL564      0.1146
   2256 H           9.5877   11.5764   16.5676 H     564  UNL564      0.1146
   2257 N           9.1002   11.2445   18.5922 N.3   565  UNL565     -0.3437
   2258 H           8.6585   10.3727   18.3037 H     565  UNL565      0.1146
   2259 H           9.8258   10.9846   19.2588 H     565  UNL565      0.1146
   2260 H           9.5877   11.5979   17.7701 H     565  UNL565      0.1146
   2261 N           9.1002   11.2445   21.2331 N.3   566  UNL566     -0.3437
   2262 H           8.6585   10.3727   20.9446 H     566  UNL566      0.1146
   2263 H           9.8258   10.9846   21.8997 H     566  UNL566      0.1146
   2264 H           9.5877   11.5979   20.4110 H     566  UNL566      0.1146
   2265 N           9.1002   14.0643    0.1065 N.3   567  UNL567     -0.3437
   2266 H           8.6585   13.1925   -0.1820 H     567  UNL567      0.1146
   2267 H           9.8258   13.8044    0.7731 H     567  UNL567      0.1146
   2268 H           9.5877   14.4176   -0.7156 H     567  UNL567      0.1146
   2269 N           9.1002   14.0643    2.7473 N.3   568  UNL568     -0.3437
   2270 H           8.6585   13.1925    2.4588 H     568  UNL568      0.1146
   2271 H           9.8258   13.8044    3.4139 H     568  UNL568      0.1146
   2272 H           9.5877   14.4176    1.9252 H     568  UNL568      0.1146
   2273 N           9.1002   14.0643    5.3881 N.3   569  UNL569     -0.3437
   2274 H           8.6585   13.1925    5.0996 H     569  UNL569      0.1146
   2275 H           9.8258   13.8044    6.0547 H     569  UNL569      0.1146
   2276 H           9.5877   14.4176    4.5660 H     569  UNL569      0.1146
   2277 N           9.1002   14.0643    8.0289 N.3   570  UNL570     -0.3437
   2278 H           8.6585   13.1925    7.7404 H     570  UNL570      0.1146
   2279 H           9.8258   13.8044    8.6955 H     570  UNL570      0.1146
   2280 H           9.5877   14.4176    7.2068 H     570  UNL570      0.1146
   2281 N           9.1002   13.8422   10.3364 N.3   571  UNL571     -0.3437
   2282 H           8.6585   14.1328   11.2075 H     571  UNL571      0.1146
   2283 H           9.8258   14.5318   10.1457 H     571  UNL571      0.1146
   2284 H           9.5877   12.9721   10.5453 H     571  UNL571      0.1146
   2285 N           7.1002   13.8422   12.9773 N.3   572  UNL572     -0.3437
   2286 H           6.6585   14.1328   13.8484 H     572  UNL572      0.1146
   2287 H           7.8258   14.5318   12.7866 H     572  UNL572      0.1146
   2288 H           7.5877   12.9721   13.1862 H     572  UNL572      0.1146
   2289 N           7.1002   13.8422   15.6181 N.3   573  UNL573     -0.3437
   2290 H           6.6585   14.1328   16.4892 H     573  UNL573      0.1146
   2291 H           7.8258   14.5318   15.4274 H     573  UNL573      0.1146
   2292 H           7.5877   12.9721   15.8270 H     573  UNL573      0.1146
   2293 N           9.1002   14.0643   18.5922 N.3   574  UNL574     -0.3437
   2294 H           8.6585   13.1925   18.3037 H     574  UNL574      0.1146
   2295 H           9.8258   13.8044   19.2588 H     574  UNL574      0.1146
   2296 H           9.5877   14.4176   17.7701 H     574  UNL574      0.1146
   2297 N           9.1002   14.0643   21.2331 N.3   575  UNL575     -0.3437
   2298 H           8.6585   13.1925   20.9446 H     575  UNL575      0.1146
   2299 H           9.8258   13.8044   21.8997 H     575  UNL575      0.1146
   2300 H           9.5877   14.4176   20.4110 H     575  UNL575      0.1146
   2301 N           9.1002   16.6619    0.4140 N.3   576  UNL576     -0.3437
   2302 H           8.6585   16.9525    1.2851 H     576  UNL576      0.1146
   2303 H           9.8258   17.3516    0.2233 H     576  UNL576      0.1146
   2304 H           9.5877   15.7919    0.6229 H     576  UNL576      0.1146
   2305 N           9.1002   16.6619    3.0548 N.3   577  UNL577     -0.3437
   2306 H           8.6585   16.9525    3.9259 H     577  UNL577      0.1146
   2307 H           9.8258   17.3516    2.8641 H     577  UNL577      0.1146
   2308 H           9.5877   15.7919    3.2637 H     577  UNL577      0.1146
   2309 N           9.1002   16.6619    5.6956 N.3   578  UNL578     -0.3437
   2310 H           8.6585   16.9525    6.5667 H     578  UNL578      0.1146
   2311 H           9.8258   17.3516    5.5049 H     578  UNL578      0.1146
   2312 H           9.5877   15.7919    5.9045 H     578  UNL578      0.1146
   2313 N           9.1002   16.6619   10.3364 N.3   579  UNL579     -0.3437
   2314 H           8.6585   16.9525   11.2075 H     579  UNL579      0.1146
   2315 H           9.8258   17.3516   10.1457 H     579  UNL579      0.1146
   2316 H           9.5877   15.7919   10.5453 H     579  UNL579      0.1146
   2317 N           9.1002   16.6619   12.9773 N.3   580  UNL580     -0.3437
   2318 H           8.6585   16.9525   13.8484 H     580  UNL580      0.1146
   2319 H           9.8258   17.3516   12.7866 H     580  UNL580      0.1146
   2320 H           9.5877   15.7919   13.1862 H     580  UNL580      0.1146
   2321 N           9.1002   16.6619   15.6181 N.3   581  UNL581     -0.3437
   2322 H           8.6585   16.9525   16.4892 H     581  UNL581      0.1146
   2323 H           9.8258   17.3516   15.4274 H     581  UNL581      0.1146
   2324 H           9.5877   15.7919   15.8270 H     581  UNL581      0.1146
   2325 N           9.1002   16.8841   18.5922 N.3   582  UNL582     -0.3437
   2326 H           8.6585   16.0123   18.3037 H     582  UNL582      0.1146
   2327 H           9.8258   16.6241   19.2588 H     582  UNL582      0.1146
   2328 H           9.5877   17.2374   17.7701 H     582  UNL582      0.1146
   2329 N           9.1002   16.8841   21.2331 N.3   583  UNL583     -0.3437
   2330 H           8.6585   16.0123   20.9446 H     583  UNL583      0.1146
   2331 H           9.8258   16.6241   21.8997 H     583  UNL583      0.1146
   2332 H           9.5877   17.2374   20.4110 H     583  UNL583      0.1146
   2333 N           9.1002   19.7038    0.1065 N.3   584  UNL584     -0.3437
   2334 H           8.6585   18.8320   -0.1820 H     584  UNL584      0.1146
   2335 H           9.8258   19.4439    0.7731 H     584  UNL584      0.1146
   2336 H           9.5877   20.0572   -0.7156 H     584  UNL584      0.1146
   2337 N           9.1002   19.7038    2.7473 N.3   585  UNL585     -0.3437
   2338 H           8.6585   18.8320    2.4588 H     585  UNL585      0.1146
   2339 H           9.8258   19.4439    3.4139 H     585  UNL585      0.1146
   2340 H           9.5877   20.0572    1.9252 H     585  UNL585      0.1146
   2341 N           9.1002   19.7038    5.3881 N.3   586  UNL586     -0.3437
   2342 H           8.6585   18.8320    5.0996 H     586  UNL586      0.1146
   2343 H           9.8258   19.4439    6.0547 H     586  UNL586      0.1146
   2344 H           9.5877   20.0572    4.5660 H     586  UNL586      0.1146
   2345 N           9.1002   19.7038    8.0289 N.3   587  UNL587     -0.3437
   2346 H           8.6585   18.8320    7.7404 H     587  UNL587      0.1146
   2347 H           9.8258   19.4439    8.6955 H     587  UNL587      0.1146
   2348 H           9.5877   20.0572    7.2068 H     587  UNL587      0.1146
   2349 N           9.1002   19.4817   10.3364 N.3   588  UNL588     -0.3437
   2350 H           8.6585   19.7723   11.2075 H     588  UNL588      0.1146
   2351 H           9.8258   20.1713   10.1457 H     588  UNL588      0.1146
   2352 H           9.5877   18.6116   10.5453 H     588  UNL588      0.1146
   2353 N           9.1002   19.3476   13.3547 N.3   589  UNL589     -0.3437
   2354 H           8.6585   19.8716   12.6006 H     589  UNL589      0.1146
   2355 H           9.8258   18.7821   12.9163 H     589  UNL589      0.1146
   2356 H           9.5877   20.0357   13.9268 H     589  UNL589      0.1146
   2357 N           9.2304   19.4817   16.1280 N.3   590  UNL590     -0.3437
   2358 H          10.1926   19.7723   15.9605 H     590  UNL590      0.1146
   2359 H           8.6434   20.1713   15.6608 H     590  UNL590      0.1146
   2360 H           9.1060   18.6116   15.6124 H     590  UNL590      0.1146
   2361 N           9.1002   19.7038   18.5922 N.3   591  UNL591     -0.3437
   2362 H           8.6585   18.8320   18.3037 H     591  UNL591      0.1146
   2363 H           9.8258   19.4439   19.2588 H     591  UNL591      0.1146
   2364 H           9.5877   20.0572   17.7701 H     591  UNL591      0.1146
   2365 N           9.1002   19.7038   21.2331 N.3   592  UNL592     -0.3437
   2366 H           8.6585   18.8320   20.9446 H     592  UNL592      0.1146
   2367 H           9.8258   19.4439   21.8997 H     592  UNL592      0.1146
   2368 H           9.5877   20.0572   20.4110 H     592  UNL592      0.1146
   2369 N           9.1002   22.5236    0.1065 N.3   593  UNL593     -0.3437
   2370 H           8.6585   21.6518   -0.1820 H     593  UNL593      0.1146
   2371 H           9.8258   22.2637    0.7731 H     593  UNL593      0.1146
   2372 H           9.5877   22.8770   -0.7156 H     593  UNL593      0.1146
   2373 N           7.3068   22.5169    2.4085 N.3   594  UNL594     -0.3437
   2374 H           6.6854   22.8398    3.1487 H     594  UNL594      0.1146
   2375 H           8.2130   22.3646    2.8491 H     594  UNL594      0.1146
   2376 H           6.9672   21.5948    2.1388 H     594  UNL594      0.1146
   2377 N           9.1002   22.5236    5.3881 N.3   595  UNL595     -0.3437
   2378 H           8.6585   21.6518    5.0996 H     595  UNL595      0.1146
   2379 H           9.8258   22.2637    6.0547 H     595  UNL595      0.1146
   2380 H           9.5877   22.8770    4.5660 H     595  UNL595      0.1146
   2381 N           9.1002   22.5236    8.0289 N.3   596  UNL596     -0.3437
   2382 H           8.6585   21.6518    7.7404 H     596  UNL596      0.1146
   2383 H           9.8258   22.2637    8.6955 H     596  UNL596      0.1146
   2384 H           9.5877   22.8770    7.2068 H     596  UNL596      0.1146
   2385 N           9.1002   22.3015   10.3364 N.3   597  UNL597     -0.3437
   2386 H           8.6585   22.5921   11.2075 H     597  UNL597      0.1146
   2387 H           9.8258   22.9911   10.1457 H     597  UNL597      0.1146
   2388 H           9.5877   21.4314   10.5453 H     597  UNL597      0.1146
   2389 N           9.1002   22.3015   12.9773 N.3   598  UNL598     -0.3437
   2390 H           8.6585   22.5921   13.8484 H     598  UNL598      0.1146
   2391 H           9.8258   22.9911   12.7866 H     598  UNL598      0.1146
   2392 H           9.5877   21.4314   13.1862 H     598  UNL598      0.1146
   2393 N           9.1002   22.3015   15.6181 N.3   599  UNL599     -0.3437
   2394 H           8.6585   22.5921   16.4892 H     599  UNL599      0.1146
   2395 H           9.8258   22.9911   15.4274 H     599  UNL599      0.1146
   2396 H           9.5877   21.4314   15.8270 H     599  UNL599      0.1146
   2397 N           9.1002   22.5236   18.5922 N.3   600  UNL600     -0.3437
   2398 H           8.6585   21.6518   18.3037 H     600  UNL600      0.1146
   2399 H           9.8258   22.2637   19.2588 H     600  UNL600      0.1146
   2400 H           9.5877   22.8770   17.7701 H     600  UNL600      0.1146
   2401 N           7.2304   22.3015   21.4096 N.3   601  UNL601     -0.3437
   2402 H           8.1926   22.5921   21.2422 H     601  UNL601      0.1146
   2403 H           6.6434   22.9911   20.9424 H     601  UNL601      0.1146
   2404 H           7.1060   21.4314   20.8940 H     601  UNL601      0.1146
   2405 N           9.1002   25.3434    0.1065 N.3   602  UNL602     -0.3437
   2406 H           8.6585   24.4716   -0.1820 H     602  UNL602      0.1146
   2407 H           9.8258   25.0835    0.7731 H     602  UNL602      0.1146
   2408 H           9.5877   25.6967   -0.7156 H     602  UNL602      0.1146
   2409 N           9.1002   25.3434    2.7473 N.3   603  UNL603     -0.3437
   2410 H           8.6585   24.4716    2.4588 H     603  UNL603      0.1146
   2411 H           9.8258   25.0835    3.4139 H     603  UNL603      0.1146
   2412 H           9.5877   25.6967    1.9252 H     603  UNL603      0.1146
   2413 N           9.1002   25.1213    5.0548 N.3   604  UNL604     -0.3437
   2414 H           8.6585   25.4119    5.9259 H     604  UNL604      0.1146
   2415 H           9.8258   25.8109    4.8641 H     604  UNL604      0.1146
   2416 H           9.5877   24.2512    5.2637 H     604  UNL604      0.1146
   2417 N           9.3374   24.9301    7.7240 N.3   605  UNL605     -0.3437
   2418 H           8.3930   24.9321    8.1066 H     605  UNL605      0.1146
   2419 H           9.4771   25.8533    7.3158 H     605  UNL605      0.1146
   2420 H           9.9649   24.8797    8.5254 H     605  UNL605      0.1146
   2421 N           9.1002   24.9872   10.7139 N.3   606  UNL606     -0.3437
   2422 H           8.6585   25.5111    9.9597 H     606  UNL606      0.1146
   2423 H           9.8258   24.4217   10.2755 H     606  UNL606      0.1146
   2424 H           9.5877   25.6752   11.2859 H     606  UNL606      0.1146
   2425 N           9.1002   25.3434   13.3106 N.3   607  UNL607     -0.3437
   2426 H           8.6585   24.4716   13.0221 H     607  UNL607      0.1146
   2427 H           9.8258   25.0835   13.9772 H     607  UNL607      0.1146
   2428 H           9.5877   25.6967   12.4885 H     607  UNL607      0.1146
   2429 N           9.1002   25.3434   15.9514 N.3   608  UNL608     -0.3437
   2430 H           8.6585   24.4716   15.6629 H     608  UNL608      0.1146
   2431 H           9.8258   25.0835   16.6180 H     608  UNL608      0.1146
   2432 H           9.5877   25.6967   15.1293 H     608  UNL608      0.1146
   2433 N           9.1002   25.3434   18.5922 N.3   609  UNL609     -0.3437
   2434 H           8.6585   24.4716   18.3037 H     609  UNL609      0.1146
   2435 H           9.8258   25.0835   19.2588 H     609  UNL609      0.1146
   2436 H           9.5877   25.6967   17.7701 H     609  UNL609      0.1146
   2437 N           9.1002   25.3434   21.2331 N.3   610  UNL610     -0.3437
   2438 H           8.6585   24.4716   20.9446 H     610  UNL610      0.1146
   2439 H           9.8258   25.0835   21.8997 H     610  UNL610      0.1146
   2440 H           9.5877   25.6967   20.4110 H     610  UNL610      0.1146
   2441 N           9.1002   28.1632    0.1065 N.3   611  UNL611     -0.3437
   2442 H           8.6585   27.2914   -0.1820 H     611  UNL611      0.1146
   2443 H           9.8258   27.9032    0.7731 H     611  UNL611      0.1146
   2444 H           9.5877   28.5165   -0.7156 H     611  UNL611      0.1146
   2445 N           9.1002   28.1632    2.7473 N.3   612  UNL612     -0.3437
   2446 H           8.6585   27.2914    2.4588 H     612  UNL612      0.1146
   2447 H           9.8258   27.9032    3.4139 H     612  UNL612      0.1146
   2448 H           9.5877   28.5165    1.9252 H     612  UNL612      0.1146
   2449 N           9.1002   28.1632    5.3881 N.3   613  UNL613     -0.3437
   2450 H           8.6585   27.2914    5.0996 H     613  UNL613      0.1146
   2451 H           9.8258   27.9032    6.0547 H     613  UNL613      0.1146
   2452 H           9.5877   28.5165    4.5660 H     613  UNL613      0.1146
   2453 N           9.1002   28.1632    8.0289 N.3   614  UNL614     -0.3437
   2454 H           8.6585   27.2914    7.7404 H     614  UNL614      0.1146
   2455 H           9.8258   27.9032    8.6955 H     614  UNL614      0.1146
   2456 H           9.5877   28.5165    7.2068 H     614  UNL614      0.1146
   2457 N           9.1002   28.1632   10.6698 N.3   615  UNL615     -0.3437
   2458 H           8.6585   27.2914   10.3813 H     615  UNL615      0.1146
   2459 H           9.8258   27.9032   11.3364 H     615  UNL615      0.1146
   2460 H           9.5877   28.5165    9.8477 H     615  UNL615      0.1146
   2461 N           9.1002   28.1632   13.3106 N.3   616  UNL616     -0.3437
   2462 H           8.6585   27.2914   13.0221 H     616  UNL616      0.1146
   2463 H           9.8258   27.9032   13.9772 H     616  UNL616      0.1146
   2464 H           9.5877   28.5165   12.4885 H     616  UNL616      0.1146
   2465 N           9.1002   28.1632   15.9514 N.3   617  UNL617     -0.3437
   2466 H           8.6585   27.2914   15.6629 H     617  UNL617      0.1146
   2467 H           9.8258   27.9032   16.6180 H     617  UNL617      0.1146
   2468 H           9.5877   28.5165   15.1293 H     617  UNL617      0.1146
   2469 N           9.1002   28.1632   18.5922 N.3   618  UNL618     -0.3437
   2470 H           8.6585   27.2914   18.3037 H     618  UNL618      0.1146
   2471 H           9.8258   27.9032   19.2588 H     618  UNL618      0.1146
   2472 H           9.5877   28.5165   17.7701 H     618  UNL618      0.1146
   2473 N           9.1002   28.1632   21.2331 N.3   619  UNL619     -0.3437
   2474 H           8.6585   27.2914   20.9446 H     619  UNL619      0.1146
   2475 H           9.8258   27.9032   21.8997 H     619  UNL619      0.1146
   2476 H           9.5877   28.5165   20.4110 H     619  UNL619      0.1146
   2477 N           9.1002   30.7608   -0.2269 N.3   620  UNL620     -0.3437
   2478 H           8.6585   31.0514    0.6442 H     620  UNL620      0.1146
   2479 H           9.8258   31.4504   -0.4176 H     620  UNL620      0.1146
   2480 H           9.5877   29.8907   -0.0180 H     620  UNL620      0.1146
   2481 N           9.1002   30.7608    2.4140 N.3   621  UNL621     -0.3437
   2482 H           8.6585   31.0514    3.2851 H     621  UNL621      0.1146
   2483 H           9.8258   31.4504    2.2233 H     621  UNL621      0.1146
   2484 H           9.5877   29.8907    2.6229 H     621  UNL621      0.1146
   2485 N           9.1002   30.7608    5.0548 N.3   622  UNL622     -0.3437
   2486 H           8.6585   31.0514    5.9259 H     622  UNL622      0.1146
   2487 H           9.8258   31.4504    4.8641 H     622  UNL622      0.1146
   2488 H           9.5877   29.8907    5.2637 H     622  UNL622      0.1146
   2489 N           9.1002   30.7608    7.6956 N.3   623  UNL623     -0.3437
   2490 H           8.6585   31.0514    8.5667 H     623  UNL623      0.1146
   2491 H           9.8258   31.4504    7.5049 H     623  UNL623      0.1146
   2492 H           9.5877   29.8907    7.9045 H     623  UNL623      0.1146
   2493 N           7.1002   30.7608   10.3364 N.3   624  UNL624     -0.3437
   2494 H           6.6585   31.0514   11.2075 H     624  UNL624      0.1146
   2495 H           7.8258   31.4504   10.1457 H     624  UNL624      0.1146
   2496 H           7.5877   29.8907   10.5453 H     624  UNL624      0.1146
   2497 N           9.1002   30.7608   12.9773 N.3   625  UNL625     -0.3437
   2498 H           8.6585   31.0514   13.8484 H     625  UNL625      0.1146
   2499 H           9.8258   31.4504   12.7866 H     625  UNL625      0.1146
   2500 H           9.5877   29.8907   13.1862 H     625  UNL625      0.1146
   2501 N           9.1002   30.7608   15.6181 N.3   626  UNL626     -0.3437
   2502 H           8.6585   31.0514   16.4892 H     626  UNL626      0.1146
   2503 H           9.8258   31.4504   15.4274 H     626  UNL626      0.1146
   2504 H           9.5877   29.8907   15.8270 H     626  UNL626      0.1146
   2505 N           9.1002   30.7608   18.2589 N.3   627  UNL627     -0.3437
   2506 H           8.6585   31.0514   19.1300 H     627  UNL627      0.1146
   2507 H           9.8258   31.4504   18.0682 H     627  UNL627      0.1146
   2508 H           9.5877   29.8907   18.4678 H     627  UNL627      0.1146
   2509 N           9.1002   30.7608   20.8997 N.3   628  UNL628     -0.3437
   2510 H           8.6585   31.0514   21.7708 H     628  UNL628      0.1146
   2511 H           9.8258   31.4504   20.7090 H     628  UNL628      0.1146
   2512 H           9.5877   29.8907   21.1086 H     628  UNL628      0.1146
   2513 N           9.1002   33.5806   -0.2269 N.3   629  UNL629     -0.3437
   2514 H           8.6585   33.8712    0.6442 H     629  UNL629      0.1146
   2515 H           9.8258   34.2702   -0.4176 H     629  UNL629      0.1146
   2516 H           9.5877   32.7105   -0.0180 H     629  UNL629      0.1146
   2517 N           9.1002   33.5806    2.4140 N.3   630  UNL630     -0.3437
   2518 H           8.6585   33.8712    3.2851 H     630  UNL630      0.1146
   2519 H           9.8258   34.2702    2.2233 H     630  UNL630      0.1146
   2520 H           9.5877   32.7105    2.6229 H     630  UNL630      0.1146
   2521 N           9.1002   33.5806    5.0548 N.3   631  UNL631     -0.3437
   2522 H           8.6585   33.8712    5.9259 H     631  UNL631      0.1146
   2523 H           9.8258   34.2702    4.8641 H     631  UNL631      0.1146
   2524 H           9.5877   32.7105    5.2637 H     631  UNL631      0.1146
   2525 N           9.1002   33.5806    7.6956 N.3   632  UNL632     -0.3437
   2526 H           8.6585   33.8712    8.5667 H     632  UNL632      0.1146
   2527 H           9.8258   34.2702    7.5049 H     632  UNL632      0.1146
   2528 H           9.5877   32.7105    7.9045 H     632  UNL632      0.1146
   2529 N           9.1002   33.5806   10.3364 N.3   633  UNL633     -0.3437
   2530 H           8.6585   33.8712   11.2075 H     633  UNL633      0.1146
   2531 H           9.8258   34.2702   10.1457 H     633  UNL633      0.1146
   2532 H           9.5877   32.7105   10.5453 H     633  UNL633      0.1146
   2533 N           9.1002   33.5806   12.9773 N.3   634  UNL634     -0.3437
   2534 H           8.6585   33.8712   13.8484 H     634  UNL634      0.1146
   2535 H           9.8258   34.2702   12.7866 H     634  UNL634      0.1146
   2536 H           9.5877   32.7105   13.1862 H     634  UNL634      0.1146
   2537 N           9.1002   33.5806   15.6181 N.3   635  UNL635     -0.3437
   2538 H           8.6585   33.8712   16.4892 H     635  UNL635      0.1146
   2539 H           9.8258   34.2702   15.4274 H     635  UNL635      0.1146
   2540 H           9.5877   32.7105   15.8270 H     635  UNL635      0.1146
   2541 N           9.1002   33.5806   18.2589 N.3   636  UNL636     -0.3437
   2542 H           8.6585   33.8712   19.1300 H     636  UNL636      0.1146
   2543 H           9.8258   34.2702   18.0682 H     636  UNL636      0.1146
   2544 H           9.5877   32.7105   18.4678 H     636  UNL636      0.1146
   2545 N           9.1002   33.5806   20.8997 N.3   637  UNL637     -0.3437
   2546 H           8.6585   33.8712   21.7708 H     637  UNL637      0.1146
   2547 H           9.8258   34.2702   20.7090 H     637  UNL637      0.1146
   2548 H           9.5877   32.7105   21.1086 H     637  UNL637      0.1146
   2549 N           9.3068   36.6158   -0.2323 N.3   638  UNL638     -0.3437
   2550 H           8.6854   36.9386    0.5079 H     638  UNL638      0.1146
   2551 H          10.2130   36.4635    0.2082 H     638  UNL638      0.1146
   2552 H           8.9672   35.6937   -0.5020 H     638  UNL638      0.1146
   2553 N           9.3068   36.6158    2.4085 N.3   639  UNL639     -0.3437
   2554 H           8.6854   36.9386    3.1487 H     639  UNL639      0.1146
   2555 H          10.2130   36.4635    2.8491 H     639  UNL639      0.1146
   2556 H           8.9672   35.6937    2.1388 H     639  UNL639      0.1146
   2557 N           9.3068   36.6158    5.0493 N.3   640  UNL640     -0.3437
   2558 H           8.6854   36.9386    5.7895 H     640  UNL640      0.1146
   2559 H          10.2130   36.4635    5.4899 H     640  UNL640      0.1146
   2560 H           8.9672   35.6937    4.7797 H     640  UNL640      0.1146
   2561 N           9.3068   36.6158    7.6902 N.3   641  UNL641     -0.3437
   2562 H           8.6854   36.9386    8.4304 H     641  UNL641      0.1146
   2563 H          10.2130   36.4635    8.1307 H     641  UNL641      0.1146
   2564 H           8.9672   35.6937    7.4205 H     641  UNL641      0.1146
   2565 N           9.1002   36.4004   10.3364 N.3   642  UNL642     -0.3437
   2566 H           8.6585   36.6910   11.2075 H     642  UNL642      0.1146
   2567 H           9.8258   37.0900   10.1457 H     642  UNL642      0.1146
   2568 H           9.5877   35.5303   10.5453 H     642  UNL642      0.1146
   2569 N           9.1002   36.4004   12.9773 N.3   643  UNL643     -0.3437
   2570 H           8.6585   36.6910   13.8484 H     643  UNL643      0.1146
   2571 H           9.8258   37.0900   12.7866 H     643  UNL643      0.1146
   2572 H           9.5877   35.5303   13.1862 H     643  UNL643      0.1146
   2573 N           9.1002   36.4004   15.6181 N.3   644  UNL644     -0.3437
   2574 H           8.6585   36.6910   16.4892 H     644  UNL644      0.1146
   2575 H           9.8258   37.0900   15.4274 H     644  UNL644      0.1146
   2576 H           9.5877   35.5303   15.8270 H     644  UNL644      0.1146
   2577 N           9.1002   36.4004   18.2589 N.3   645  UNL645     -0.3437
   2578 H           8.6585   36.6910   19.1300 H     645  UNL645      0.1146
   2579 H           9.8258   37.0900   18.0682 H     645  UNL645      0.1146
   2580 H           9.5877   35.5303   18.4678 H     645  UNL645      0.1146
   2581 N           9.1002   36.4004   20.8997 N.3   646  UNL646     -0.3437
   2582 H           8.6585   36.6910   21.7708 H     646  UNL646      0.1146
   2583 H           9.8258   37.0900   20.7090 H     646  UNL646      0.1146
   2584 H           9.5877   35.5303   21.1086 H     646  UNL646      0.1146
   2585 N           9.1002   39.4423    0.1065 N.3   647  UNL647     -0.3437
   2586 H           8.6585   38.5705   -0.1820 H     647  UNL647      0.1146
   2587 H           9.8258   39.1824    0.7731 H     647  UNL647      0.1146
   2588 H           9.5877   39.7956   -0.7156 H     647  UNL647      0.1146
   2589 N           9.1002   39.4423    2.7473 N.3   648  UNL648     -0.3437
   2590 H           8.6585   38.5705    2.4588 H     648  UNL648      0.1146
   2591 H           9.8258   39.1824    3.4139 H     648  UNL648      0.1146
   2592 H           9.5877   39.7956    1.9252 H     648  UNL648      0.1146
   2593 N           9.1002   39.4423    5.3881 N.3   649  UNL649     -0.3437
   2594 H           8.6585   38.5705    5.0996 H     649  UNL649      0.1146
   2595 H           9.8258   39.1824    6.0547 H     649  UNL649      0.1146
   2596 H           9.5877   39.7956    4.5660 H     649  UNL649      0.1146
   2597 N           9.1002   39.4423    8.0289 N.3   650  UNL650     -0.3437
   2598 H           8.6585   38.5705    7.7404 H     650  UNL650      0.1146
   2599 H           9.8258   39.1824    8.6955 H     650  UNL650      0.1146
   2600 H           9.5877   39.7956    7.2068 H     650  UNL650      0.1146
   2601 N           9.1002   39.2202   10.3364 N.3   651  UNL651     -0.3437
   2602 H           8.6585   39.5108   11.2075 H     651  UNL651      0.1146
   2603 H           9.8258   39.9098   10.1457 H     651  UNL651      0.1146
   2604 H           9.5877   38.3501   10.5453 H     651  UNL651      0.1146
   2605 N           9.1002   39.2202   12.9773 N.3   652  UNL652     -0.3437
   2606 H           8.6585   39.5108   13.8484 H     652  UNL652      0.1146
   2607 H           9.8258   39.9098   12.7866 H     652  UNL652      0.1146
   2608 H           9.5877   38.3501   13.1862 H     652  UNL652      0.1146
   2609 N           9.1002   39.2202   15.6181 N.3   653  UNL653     -0.3437
   2610 H           8.6585   39.5108   16.4892 H     653  UNL653      0.1146
   2611 H           9.8258   39.9098   15.4274 H     653  UNL653      0.1146
   2612 H           9.5877   38.3501   15.8270 H     653  UNL653      0.1146
   2613 N           9.1002   39.2202   18.2589 N.3   654  UNL654     -0.3437
   2614 H           8.6585   39.5108   19.1300 H     654  UNL654      0.1146
   2615 H           9.8258   39.9098   18.0682 H     654  UNL654      0.1146
   2616 H           9.5877   38.3501   18.4678 H     654  UNL654      0.1146
   2617 N           9.1002   39.2202   20.8997 N.3   655  UNL655     -0.3437
   2618 H           8.6585   39.5108   21.7708 H     655  UNL655      0.1146
   2619 H           9.8258   39.9098   20.7090 H     655  UNL655      0.1146
   2620 H           9.5877   38.3501   21.1086 H     655  UNL655      0.1146
   2621 N          11.6319   -0.2567   -0.2269 N.3   656  UNL656     -0.3437
   2622 H          11.1902    0.0339    0.6442 H     656  UNL656      0.1146
   2623 H          12.3575    0.4329   -0.4176 H     656  UNL656      0.1146
   2624 H          12.1194   -1.1268   -0.0180 H     656  UNL656      0.1146
   2625 N          11.6319   -0.2567    2.4140 N.3   657  UNL657     -0.3437
   2626 H          11.1902    0.0339    3.2851 H     657  UNL657      0.1146
   2627 H          12.3575    0.4329    2.2233 H     657  UNL657      0.1146
   2628 H          12.1194   -1.1268    2.6229 H     657  UNL657      0.1146
   2629 N          11.6319   -0.2567    5.0548 N.3   658  UNL658     -0.3437
   2630 H          11.1902    0.0339    5.9259 H     658  UNL658      0.1146
   2631 H          12.3575    0.4329    4.8641 H     658  UNL658      0.1146
   2632 H          12.1194   -1.1268    5.2637 H     658  UNL658      0.1146
   2633 N          11.6319   -0.2567    7.6956 N.3   659  UNL659     -0.3437
   2634 H          11.1902    0.0339    8.5667 H     659  UNL659      0.1146
   2635 H          12.3575    0.4329    7.5049 H     659  UNL659      0.1146
   2636 H          12.1194   -1.1268    7.9045 H     659  UNL659      0.1146
   2637 N          11.6319   -0.3908   13.3547 N.3   660  UNL660     -0.3437
   2638 H          11.1902    0.1332   12.6006 H     660  UNL660      0.1146
   2639 H          12.3575   -0.9563   12.9163 H     660  UNL660      0.1146
   2640 H          12.1194    0.2973   13.9268 H     660  UNL660      0.1146
   2641 N          11.6319   -0.2567   15.6181 N.3   661  UNL661     -0.3437
   2642 H          11.1902    0.0339   16.4892 H     661  UNL661      0.1146
   2643 H          12.3575    0.4329   15.4274 H     661  UNL661      0.1146
   2644 H          12.1194   -1.1268   15.8270 H     661  UNL661      0.1146
   2645 N          11.6319   -0.2567   18.2589 N.3   662  UNL662     -0.3437
   2646 H          11.1902    0.0339   19.1300 H     662  UNL662      0.1146
   2647 H          12.3575    0.4329   18.0682 H     662  UNL662      0.1146
   2648 H          12.1194   -1.1268   18.4678 H     662  UNL662      0.1146
   2649 N          11.6319   -0.2567   20.8997 N.3   663  UNL663     -0.3437
   2650 H          11.1902    0.0339   21.7708 H     663  UNL663      0.1146
   2651 H          12.3575    0.4329   20.7090 H     663  UNL663      0.1146
   2652 H          12.1194   -1.1268   21.1086 H     663  UNL663      0.1146
   2653 N          11.6319    2.5631   -0.2269 N.3   664  UNL664     -0.3437
   2654 H          11.1902    2.8537    0.6442 H     664  UNL664      0.1146
   2655 H          12.3575    3.2527   -0.4176 H     664  UNL664      0.1146
   2656 H          12.1194    1.6930   -0.0180 H     664  UNL664      0.1146
   2657 N          11.6319    2.5631    2.4140 N.3   665  UNL665     -0.3437
   2658 H          11.1902    2.8537    3.2851 H     665  UNL665      0.1146
   2659 H          12.3575    3.2527    2.2233 H     665  UNL665      0.1146
   2660 H          12.1194    1.6930    2.6229 H     665  UNL665      0.1146
   2661 N          11.6319    2.5631    5.0548 N.3   666  UNL666     -0.3437
   2662 H          11.1902    2.8537    5.9259 H     666  UNL666      0.1146
   2663 H          12.3575    3.2527    4.8641 H     666  UNL666      0.1146
   2664 H          12.1194    1.6930    5.2637 H     666  UNL666      0.1146
   2665 N          11.6319    2.5631    7.6956 N.3   667  UNL667     -0.3437
   2666 H          11.1902    2.8537    8.5667 H     667  UNL667      0.1146
   2667 H          12.3575    3.2527    7.5049 H     667  UNL667      0.1146
   2668 H          12.1194    1.6930    7.9045 H     667  UNL667      0.1146
   2669 N          11.6104    0.3903   10.5947 N.3   668  UNL668     -0.3437
   2670 H          11.6688    1.0486   11.3703 H     668  UNL668      0.1146
   2671 H          11.4855    0.9551    9.7558 H     668  UNL668      0.1146
   2672 H          12.5344   -0.0316   10.5142 H     668  UNL668      0.1146
   2673 N          11.6319    2.5631   12.9773 N.3   669  UNL669     -0.3437
   2674 H          11.1902    2.8537   13.8484 H     669  UNL669      0.1146
   2675 H          12.3575    3.2527   12.7866 H     669  UNL669      0.1146
   2676 H          12.1194    1.6930   13.1862 H     669  UNL669      0.1146
   2677 N          11.6319    2.5631   15.6181 N.3   670  UNL670     -0.3437
   2678 H          11.1902    2.8537   16.4892 H     670  UNL670      0.1146
   2679 H          12.3575    3.2527   15.4274 H     670  UNL670      0.1146
   2680 H          12.1194    1.6930   15.8270 H     670  UNL670      0.1146
   2681 N          11.6319    2.5631   18.2589 N.3   671  UNL671     -0.3437
   2682 H          11.1902    2.8537   19.1300 H     671  UNL671      0.1146
   2683 H          12.3575    3.2527   18.0682 H     671  UNL671      0.1146
   2684 H          12.1194    1.6930   18.4678 H     671  UNL671      0.1146
   2685 N          11.6319    2.7852   21.2331 N.3   672  UNL672     -0.3437
   2686 H          11.1902    1.9134   20.9446 H     672  UNL672      0.1146
   2687 H          12.3575    2.5253   21.8997 H     672  UNL672      0.1146
   2688 H          12.1194    3.1385   20.4110 H     672  UNL672      0.1146
   2689 N          11.6319    5.6050    0.1065 N.3   673  UNL673     -0.3437
   2690 H          11.1902    4.7332   -0.1820 H     673  UNL673      0.1146
   2691 H          12.3575    5.3450    0.7731 H     673  UNL673      0.1146
   2692 H          12.1194    5.9583   -0.7156 H     673  UNL673      0.1146
   2693 N          11.6319    5.6050    2.7473 N.3   674  UNL674     -0.3437
   2694 H          11.1902    4.7332    2.4588 H     674  UNL674      0.1146
   2695 H          12.3575    5.3450    3.4139 H     674  UNL674      0.1146
   2696 H          12.1194    5.9583    1.9252 H     674  UNL674      0.1146
   2697 N          11.6319    5.6050    5.3881 N.3   675  UNL675     -0.3437
   2698 H          11.1902    4.7332    5.0996 H     675  UNL675      0.1146
   2699 H          12.3575    5.3450    6.0547 H     675  UNL675      0.1146
   2700 H          12.1194    5.9583    4.5660 H     675  UNL675      0.1146
   2701 N          11.6319    5.6050    8.0289 N.3   676  UNL676     -0.3437
   2702 H          11.1902    4.7332    7.7404 H     676  UNL676      0.1146
   2703 H          12.3575    5.3450    8.6955 H     676  UNL676      0.1146
   2704 H          12.1194    5.9583    7.2068 H     676  UNL676      0.1146
   2705 N          11.6319    5.3829   10.3364 N.3   677  UNL677     -0.3437
   2706 H          11.1902    5.6735   11.2075 H     677  UNL677      0.1146
   2707 H          12.3575    6.0725   10.1457 H     677  UNL677      0.1146
   2708 H          12.1194    4.5128   10.5453 H     677  UNL677      0.1146
   2709 N          11.6319    5.3829   12.9773 N.3   678  UNL678     -0.3437
   2710 H          11.1902    5.6735   13.8484 H     678  UNL678      0.1146
   2711 H          12.3575    6.0725   12.7866 H     678  UNL678      0.1146
   2712 H          12.1194    4.5128   13.1862 H     678  UNL678      0.1146
   2713 N          11.6319    5.3829   15.6181 N.3   679  UNL679     -0.3437
   2714 H          11.1902    5.6735   16.4892 H     679  UNL679      0.1146
   2715 H          12.3575    6.0725   15.4274 H     679  UNL679      0.1146
   2716 H          12.1194    4.5128   15.8270 H     679  UNL679      0.1146
   2717 N          11.6319    5.3829   18.2589 N.3   680  UNL680     -0.3437
   2718 H          11.1902    5.6735   19.1300 H     680  UNL680      0.1146
   2719 H          12.3575    6.0725   18.0682 H     680  UNL680      0.1146
   2720 H          12.1194    4.5128   18.4678 H     680  UNL680      0.1146
   2721 N          11.6319    5.3829   20.8997 N.3   681  UNL681     -0.3437
   2722 H          11.1902    5.6735   21.7708 H     681  UNL681      0.1146
   2723 H          12.3575    6.0725   20.7090 H     681  UNL681      0.1146
   2724 H          12.1194    4.5128   21.1086 H     681  UNL681      0.1146
   2725 N          11.6319    8.2026   -0.2269 N.3   682  UNL682     -0.3437
   2726 H          11.1902    8.4932    0.6442 H     682  UNL682      0.1146
   2727 H          12.3575    8.8922   -0.4176 H     682  UNL682      0.1146
   2728 H          12.1194    7.3325   -0.0180 H     682  UNL682      0.1146
   2729 N          11.6319    8.2026    2.4140 N.3   683  UNL683     -0.3437
   2730 H          11.1902    8.4932    3.2851 H     683  UNL683      0.1146
   2731 H          12.3575    8.8922    2.2233 H     683  UNL683      0.1146
   2732 H          12.1194    7.3325    2.6229 H     683  UNL683      0.1146
   2733 N          11.6319    8.2026    5.0548 N.3   684  UNL684     -0.3437
   2734 H          11.1902    8.4932    5.9259 H     684  UNL684      0.1146
   2735 H          12.3575    8.8922    4.8641 H     684  UNL684      0.1146
   2736 H          12.1194    7.3325    5.2637 H     684  UNL684      0.1146
   2737 N          11.6319    8.2026    7.6956 N.3   685  UNL685     -0.3437
   2738 H          11.1902    8.4932    8.5667 H     685  UNL685      0.1146
   2739 H          12.3575    8.8922    7.5049 H     685  UNL685      0.1146
   2740 H          12.1194    7.3325    7.9045 H     685  UNL685      0.1146
   2741 N           9.6319    8.2026   10.3364 N.3   686  UNL686     -0.3437
   2742 H           9.1902    8.4932   11.2075 H     686  UNL686      0.1146
   2743 H          10.3575    8.8922   10.1457 H     686  UNL686      0.1146
   2744 H          10.1194    7.3325   10.5453 H     686  UNL686      0.1146
   2745 N          11.7621    8.2026   13.4871 N.3   687  UNL687     -0.3437
   2746 H          12.7243    8.4932   13.3197 H     687  UNL687      0.1146
   2747 H          11.1751    8.8922   13.0199 H     687  UNL687      0.1146
   2748 H          11.6377    7.3325   12.9716 H     687  UNL687      0.1146
   2749 N          11.6319    8.2026   15.6181 N.3   688  UNL688     -0.3437
   2750 H          11.1902    8.4932   16.4892 H     688  UNL688      0.1146
   2751 H          12.3575    8.8922   15.4274 H     688  UNL688      0.1146
   2752 H          12.1194    7.3325   15.8270 H     688  UNL688      0.1146
   2753 N          11.6319    8.2026   18.2589 N.3   689  UNL689     -0.3437
   2754 H          11.1902    8.4932   19.1300 H     689  UNL689      0.1146
   2755 H          12.3575    8.8922   18.0682 H     689  UNL689      0.1146
   2756 H          12.1194    7.3325   18.4678 H     689  UNL689      0.1146
   2757 N          11.6319    8.2026   20.8997 N.3   690  UNL690     -0.3437
   2758 H          11.1902    8.4932   21.7708 H     690  UNL690      0.1146
   2759 H          12.3575    8.8922   20.7090 H     690  UNL690      0.1146
   2760 H          12.1194    7.3325   21.1086 H     690  UNL690      0.1146
   2761 N          11.6319   11.2445    0.1065 N.3   691  UNL691     -0.3437
   2762 H          11.1902   10.3727   -0.1820 H     691  UNL691      0.1146
   2763 H          12.3575   10.9846    0.7731 H     691  UNL691      0.1146
   2764 H          12.1194   11.5979   -0.7156 H     691  UNL691      0.1146
   2765 N           9.7621   11.0224    2.9238 N.3   692  UNL692     -0.3437
   2766 H          10.7243   11.3130    2.7564 H     692  UNL692      0.1146
   2767 H           9.1751   11.7120    2.4566 H     692  UNL692      0.1146
   2768 H           9.6377   10.1523    2.4083 H     692  UNL692      0.1146
   2769 N          11.6319   11.2445    5.3881 N.3   693  UNL693     -0.3437
   2770 H          11.1902   10.3727    5.0996 H     693  UNL693      0.1146
   2771 H          12.3575   10.9846    6.0547 H     693  UNL693      0.1146
   2772 H          12.1194   11.5979    4.5660 H     693  UNL693      0.1146
   2773 N          11.6319   11.2445    8.0289 N.3   694  UNL694     -0.3437
   2774 H          11.1902   10.3727    7.7404 H     694  UNL694      0.1146
   2775 H          12.3575   10.9846    8.6955 H     694  UNL694      0.1146
   2776 H          12.1194   11.5979    7.2068 H     694  UNL694      0.1146
   2777 N          11.6319   11.0224   10.3364 N.3   695  UNL695     -0.3437
   2778 H          11.1902   11.3130   11.2075 H     695  UNL695      0.1146
   2779 H          12.3575   11.7120   10.1457 H     695  UNL695      0.1146
   2780 H          12.1194   10.1523   10.5453 H     695  UNL695      0.1146
   2781 N          11.6319   11.0224   12.9773 N.3   696  UNL696     -0.3437
   2782 H          11.1902   11.3130   13.8484 H     696  UNL696      0.1146
   2783 H          12.3575   11.7120   12.7866 H     696  UNL696      0.1146
   2784 H          12.1194   10.1523   13.1862 H     696  UNL696      0.1146
   2785 N          11.8385   11.2378   15.6126 N.3   697  UNL697     -0.3437
   2786 H          11.2171   11.5607   16.3528 H     697  UNL697      0.1146
   2787 H          12.7447   11.0855   16.0532 H     697  UNL697      0.1146
   2788 H          11.4989   10.3157   15.3430 H     697  UNL697      0.1146
   2789 N          11.6319   11.2445   18.5922 N.3   698  UNL698     -0.3437
   2790 H          11.1902   10.3727   18.3037 H     698  UNL698      0.1146
   2791 H          12.3575   10.9846   19.2588 H     698  UNL698      0.1146
   2792 H          12.1194   11.5979   17.7701 H     698  UNL698      0.1146
   2793 N          11.6319   11.2445   21.2331 N.3   699  UNL699     -0.3437
   2794 H          11.1902   10.3727   20.9446 H     699  UNL699      0.1146
   2795 H          12.3575   10.9846   21.8997 H     699  UNL699      0.1146
   2796 H          12.1194   11.5979   20.4110 H     699  UNL699      0.1146
   2797 N          11.6319   14.0643    0.1065 N.3   700  UNL700     -0.3437
   2798 H          11.1902   13.1925   -0.1820 H     700  UNL700      0.1146
   2799 H          12.3575   13.8044    0.7731 H     700  UNL700      0.1146
   2800 H          12.1194   14.4176   -0.7156 H     700  UNL700      0.1146
   2801 N          11.6319   14.0643    2.7473 N.3   701  UNL701     -0.3437
   2802 H          11.1902   13.1925    2.4588 H     701  UNL701      0.1146
   2803 H          12.3575   13.8044    3.4139 H     701  UNL701      0.1146
   2804 H          12.1194   14.4176    1.9252 H     701  UNL701      0.1146
   2805 N          11.6319   14.0643    5.3881 N.3   702  UNL702     -0.3437
   2806 H          11.1902   13.1925    5.0996 H     702  UNL702      0.1146
   2807 H          12.3575   13.8044    6.0547 H     702  UNL702      0.1146
   2808 H          12.1194   14.4176    4.5660 H     702  UNL702      0.1146
   2809 N          11.6319   14.0643    8.0289 N.3   703  UNL703     -0.3437
   2810 H          11.1902   13.1925    7.7404 H     703  UNL703      0.1146
   2811 H          12.3575   13.8044    8.6955 H     703  UNL703      0.1146
   2812 H          12.1194   14.4176    7.2068 H     703  UNL703      0.1146
   2813 N          11.6319   13.8422   10.3364 N.3   704  UNL704     -0.3437
   2814 H          11.1902   14.1328   11.2075 H     704  UNL704      0.1146
   2815 H          12.3575   14.5318   10.1457 H     704  UNL704      0.1146
   2816 H          12.1194   12.9721   10.5453 H     704  UNL704      0.1146
   2817 N           9.6319   13.8422   12.9773 N.3   705  UNL705     -0.3437
   2818 H           9.1902   14.1328   13.8484 H     705  UNL705      0.1146
   2819 H          10.3575   14.5318   12.7866 H     705  UNL705      0.1146
   2820 H          10.1194   12.9721   13.1862 H     705  UNL705      0.1146
   2821 N           9.6319   13.8422   15.6181 N.3   706  UNL706     -0.3437
   2822 H           9.1902   14.1328   16.4892 H     706  UNL706      0.1146
   2823 H          10.3575   14.5318   15.4274 H     706  UNL706      0.1146
   2824 H          10.1194   12.9721   15.8270 H     706  UNL706      0.1146
   2825 N          11.6319   14.0643   18.5922 N.3   707  UNL707     -0.3437
   2826 H          11.1902   13.1925   18.3037 H     707  UNL707      0.1146
   2827 H          12.3575   13.8044   19.2588 H     707  UNL707      0.1146
   2828 H          12.1194   14.4176   17.7701 H     707  UNL707      0.1146
   2829 N          11.6319   14.0643   21.2331 N.3   708  UNL708     -0.3437
   2830 H          11.1902   13.1925   20.9446 H     708  UNL708      0.1146
   2831 H          12.3575   13.8044   21.8997 H     708  UNL708      0.1146
   2832 H          12.1194   14.4176   20.4110 H     708  UNL708      0.1146
   2833 N          11.6319   16.6619    0.4140 N.3   709  UNL709     -0.3437
   2834 H          11.1902   16.9525    1.2851 H     709  UNL709      0.1146
   2835 H          12.3575   17.3516    0.2233 H     709  UNL709      0.1146
   2836 H          12.1194   15.7919    0.6229 H     709  UNL709      0.1146
   2837 N          11.6319   16.6619    3.0548 N.3   710  UNL710     -0.3437
   2838 H          11.1902   16.9525    3.9259 H     710  UNL710      0.1146
   2839 H          12.3575   17.3516    2.8641 H     710  UNL710      0.1146
   2840 H          12.1194   15.7919    3.2637 H     710  UNL710      0.1146
   2841 N          11.6319   16.6619    5.6956 N.3   711  UNL711     -0.3437
   2842 H          11.1902   16.9525    6.5667 H     711  UNL711      0.1146
   2843 H          12.3575   17.3516    5.5049 H     711  UNL711      0.1146
   2844 H          12.1194   15.7919    5.9045 H     711  UNL711      0.1146
   2845 N          11.6319   16.6619   10.3364 N.3   712  UNL712     -0.3437
   2846 H          11.1902   16.9525   11.2075 H     712  UNL712      0.1146
   2847 H          12.3575   17.3516   10.1457 H     712  UNL712      0.1146
   2848 H          12.1194   15.7919   10.5453 H     712  UNL712      0.1146
   2849 N          11.6319   16.6619   12.9773 N.3   713  UNL713     -0.3437
   2850 H          11.1902   16.9525   13.8484 H     713  UNL713      0.1146
   2851 H          12.3575   17.3516   12.7866 H     713  UNL713      0.1146
   2852 H          12.1194   15.7919   13.1862 H     713  UNL713      0.1146
   2853 N          11.6319   16.6619   15.6181 N.3   714  UNL714     -0.3437
   2854 H          11.1902   16.9525   16.4892 H     714  UNL714      0.1146
   2855 H          12.3575   17.3516   15.4274 H     714  UNL714      0.1146
   2856 H          12.1194   15.7919   15.8270 H     714  UNL714      0.1146
   2857 N          11.6319   16.8841   18.5922 N.3   715  UNL715     -0.3437
   2858 H          11.1902   16.0123   18.3037 H     715  UNL715      0.1146
   2859 H          12.3575   16.6241   19.2588 H     715  UNL715      0.1146
   2860 H          12.1194   17.2374   17.7701 H     715  UNL715      0.1146
   2861 N          11.6319   16.8841   21.2331 N.3   716  UNL716     -0.3437
   2862 H          11.1902   16.0123   20.9446 H     716  UNL716      0.1146
   2863 H          12.3575   16.6241   21.8997 H     716  UNL716      0.1146
   2864 H          12.1194   17.2374   20.4110 H     716  UNL716      0.1146
   2865 N          11.6319   19.7038    0.1065 N.3   717  UNL717     -0.3437
   2866 H          11.1902   18.8320   -0.1820 H     717  UNL717      0.1146
   2867 H          12.3575   19.4439    0.7731 H     717  UNL717      0.1146
   2868 H          12.1194   20.0572   -0.7156 H     717  UNL717      0.1146
   2869 N          11.6319   19.7038    2.7473 N.3   718  UNL718     -0.3437
   2870 H          11.1902   18.8320    2.4588 H     718  UNL718      0.1146
   2871 H          12.3575   19.4439    3.4139 H     718  UNL718      0.1146
   2872 H          12.1194   20.0572    1.9252 H     718  UNL718      0.1146
   2873 N          11.6319   19.7038    5.3881 N.3   719  UNL719     -0.3437
   2874 H          11.1902   18.8320    5.0996 H     719  UNL719      0.1146
   2875 H          12.3575   19.4439    6.0547 H     719  UNL719      0.1146
   2876 H          12.1194   20.0572    4.5660 H     719  UNL719      0.1146
   2877 N          11.6319   19.7038    8.0289 N.3   720  UNL720     -0.3437
   2878 H          11.1902   18.8320    7.7404 H     720  UNL720      0.1146
   2879 H          12.3575   19.4439    8.6955 H     720  UNL720      0.1146
   2880 H          12.1194   20.0572    7.2068 H     720  UNL720      0.1146
   2881 N          11.6319   19.4817   10.3364 N.3   721  UNL721     -0.3437
   2882 H          11.1902   19.7723   11.2075 H     721  UNL721      0.1146
   2883 H          12.3575   20.1713   10.1457 H     721  UNL721      0.1146
   2884 H          12.1194   18.6116   10.5453 H     721  UNL721      0.1146
   2885 N          11.8385   19.6971   12.9718 N.3   722  UNL722     -0.3437
   2886 H          11.2171   20.0200   13.7120 H     722  UNL722      0.1146
   2887 H          12.7447   19.5448   13.4124 H     722  UNL722      0.1146
   2888 H          11.4989   18.7751   12.7021 H     722  UNL722      0.1146
   2889 N          11.8385   19.6971   15.6126 N.3   723  UNL723     -0.3437
   2890 H          11.2171   20.0200   16.3528 H     723  UNL723      0.1146
   2891 H          12.7447   19.5448   16.0532 H     723  UNL723      0.1146
   2892 H          11.4989   18.7751   15.3430 H     723  UNL723      0.1146
   2893 N          11.6319   19.7038   18.5922 N.3   724  UNL724     -0.3437
   2894 H          11.1902   18.8320   18.3037 H     724  UNL724      0.1146
   2895 H          12.3575   19.4439   19.2588 H     724  UNL724      0.1146
   2896 H          12.1194   20.0572   17.7701 H     724  UNL724      0.1146
   2897 N          11.6319   19.7038   21.2331 N.3   725  UNL725     -0.3437
   2898 H          11.1902   18.8320   20.9446 H     725  UNL725      0.1146
   2899 H          12.3575   19.4439   21.8997 H     725  UNL725      0.1146
   2900 H          12.1194   20.0572   20.4110 H     725  UNL725      0.1146
   2901 N           9.7621   22.3015    2.9238 N.3   726  UNL726     -0.3437
   2902 H          10.7243   22.5921    2.7564 H     726  UNL726      0.1146
   2903 H           9.1751   22.9911    2.4566 H     726  UNL726      0.1146
   2904 H           9.6377   21.4314    2.4083 H     726  UNL726      0.1146
   2905 N          11.6319   22.5236    5.3881 N.3   727  UNL727     -0.3437
   2906 H          11.1902   21.6518    5.0996 H     727  UNL727      0.1146
   2907 H          12.3575   22.2637    6.0547 H     727  UNL727      0.1146
   2908 H          12.1194   22.8770    4.5660 H     727  UNL727      0.1146
   2909 N          11.6319   22.5236    8.0289 N.3   728  UNL728     -0.3437
   2910 H          11.1902   21.6518    7.7404 H     728  UNL728      0.1146
   2911 H          12.3575   22.2637    8.6955 H     728  UNL728      0.1146
   2912 H          12.1194   22.8770    7.2068 H     728  UNL728      0.1146
   2913 N          11.6319   22.3015   10.3364 N.3   729  UNL729     -0.3437
   2914 H          11.1902   22.5921   11.2075 H     729  UNL729      0.1146
   2915 H          12.3575   22.9911   10.1457 H     729  UNL729      0.1146
   2916 H          12.1194   21.4314   10.5453 H     729  UNL729      0.1146
   2917 N          11.6319   22.3015   12.9773 N.3   730  UNL730     -0.3437
   2918 H          11.1902   22.5921   13.8484 H     730  UNL730      0.1146
   2919 H          12.3575   22.9911   12.7866 H     730  UNL730      0.1146
   2920 H          12.1194   21.4314   13.1862 H     730  UNL730      0.1146
   2921 N          11.6319   22.3015   15.6181 N.3   731  UNL731     -0.3437
   2922 H          11.1902   22.5921   16.4892 H     731  UNL731      0.1146
   2923 H          12.3575   22.9911   15.4274 H     731  UNL731      0.1146
   2924 H          12.1194   21.4314   15.8270 H     731  UNL731      0.1146
   2925 N          11.6319   22.5236   18.5922 N.3   732  UNL732     -0.3437
   2926 H          11.1902   21.6518   18.3037 H     732  UNL732      0.1146
   2927 H          12.3575   22.2637   19.2588 H     732  UNL732      0.1146
   2928 H          12.1194   22.8770   17.7701 H     732  UNL732      0.1146
   2929 N           9.8385   22.5169   20.8943 N.3   733  UNL733     -0.3437
   2930 H           9.2171   22.8398   21.6345 H     733  UNL733      0.1146
   2931 H          10.7447   22.3646   21.3348 H     733  UNL733      0.1146
   2932 H           9.4989   21.5948   20.6246 H     733  UNL733      0.1146
   2933 N          11.6319   25.3434    0.1065 N.3   734  UNL734     -0.3437
   2934 H          11.1902   24.4716   -0.1820 H     734  UNL734      0.1146
   2935 H          12.3575   25.0835    0.7731 H     734  UNL734      0.1146
   2936 H          12.1194   25.6967   -0.7156 H     734  UNL734      0.1146
   2937 N          11.6319   25.3434    2.7473 N.3   735  UNL735     -0.3437
   2938 H          11.1902   24.4716    2.4588 H     735  UNL735      0.1146
   2939 H          12.3575   25.0835    3.4139 H     735  UNL735      0.1146
   2940 H          12.1194   25.6967    1.9252 H     735  UNL735      0.1146
   2941 N          11.6319   25.3434    5.3881 N.3   736  UNL736     -0.3437
   2942 H          11.1902   24.4716    5.0996 H     736  UNL736      0.1146
   2943 H          12.3575   25.0835    6.0547 H     736  UNL736      0.1146
   2944 H          12.1194   25.6967    4.5660 H     736  UNL736      0.1146
   2945 N          11.6319   25.3434    8.0289 N.3   737  UNL737     -0.3437
   2946 H          11.1902   24.4716    7.7404 H     737  UNL737      0.1146
   2947 H          12.3575   25.0835    8.6955 H     737  UNL737      0.1146
   2948 H          12.1194   25.6967    7.2068 H     737  UNL737      0.1146
   2949 N          11.5955   25.0284   10.4163 N.3   738  UNL738     -0.3437
   2950 H          11.7232   24.6452   11.3518 H     738  UNL738      0.1146
   2951 H          11.5004   26.0359   10.5360 H     738  UNL738      0.1146
   2952 H          12.4801   24.8856    9.9310 H     738  UNL738      0.1146
   2953 N          11.5955   25.0284   13.0571 N.3   739  UNL739     -0.3437
   2954 H          11.7232   24.6452   13.9926 H     739  UNL739      0.1146
   2955 H          11.5004   26.0359   13.1768 H     739  UNL739      0.1146
   2956 H          12.4801   24.8856   12.5718 H     739  UNL739      0.1146
   2957 N          11.5955   25.0284   15.6979 N.3   740  UNL740     -0.3437
   2958 H          11.7232   24.6452   16.6334 H     740  UNL740      0.1146
   2959 H          11.5004   26.0359   15.8176 H     740  UNL740      0.1146
   2960 H          12.4801   24.8856   15.2127 H     740  UNL740      0.1146
   2961 N          11.6319   25.3434   18.5922 N.3   741  UNL741     -0.3437
   2962 H          11.1902   24.4716   18.3037 H     741  UNL741      0.1146
   2963 H          12.3575   25.0835   19.2588 H     741  UNL741      0.1146
   2964 H          12.1194   25.6967   17.7701 H     741  UNL741      0.1146
   2965 N          11.6319   25.3434   21.2331 N.3   742  UNL742     -0.3437
   2966 H          11.1902   24.4716   20.9446 H     742  UNL742      0.1146
   2967 H          12.3575   25.0835   21.8997 H     742  UNL742      0.1146
   2968 H          12.1194   25.6967   20.4110 H     742  UNL742      0.1146
   2969 N          11.6319   28.1632    0.1065 N.3   743  UNL743     -0.3437
   2970 H          11.1902   27.2914   -0.1820 H     743  UNL743      0.1146
   2971 H          12.3575   27.9032    0.7731 H     743  UNL743      0.1146
   2972 H          12.1194   28.5165   -0.7156 H     743  UNL743      0.1146
   2973 N          11.6319   28.1632    2.7473 N.3   744  UNL744     -0.3437
   2974 H          11.1902   27.2914    2.4588 H     744  UNL744      0.1146
   2975 H          12.3575   27.9032    3.4139 H     744  UNL744      0.1146
   2976 H          12.1194   28.5165    1.9252 H     744  UNL744      0.1146
   2977 N          11.6319   28.1632    5.3881 N.3   745  UNL745     -0.3437
   2978 H          11.1902   27.2914    5.0996 H     745  UNL745      0.1146
   2979 H          12.3575   27.9032    6.0547 H     745  UNL745      0.1146
   2980 H          12.1194   28.5165    4.5660 H     745  UNL745      0.1146
   2981 N          11.6319   28.1632    8.0289 N.3   746  UNL746     -0.3437
   2982 H          11.1902   27.2914    7.7404 H     746  UNL746      0.1146
   2983 H          12.3575   27.9032    8.6955 H     746  UNL746      0.1146
   2984 H          12.1194   28.5165    7.2068 H     746  UNL746      0.1146
   2985 N          11.6319   28.1632   10.6698 N.3   747  UNL747     -0.3437
   2986 H          11.1902   27.2914   10.3813 H     747  UNL747      0.1146
   2987 H          12.3575   27.9032   11.3364 H     747  UNL747      0.1146
   2988 H          12.1194   28.5165    9.8477 H     747  UNL747      0.1146
   2989 N          11.6319   28.1632   13.3106 N.3   748  UNL748     -0.3437
   2990 H          11.1902   27.2914   13.0221 H     748  UNL748      0.1146
   2991 H          12.3575   27.9032   13.9772 H     748  UNL748      0.1146
   2992 H          12.1194   28.5165   12.4885 H     748  UNL748      0.1146
   2993 N          11.6319   28.1632   15.9514 N.3   749  UNL749     -0.3437
   2994 H          11.1902   27.2914   15.6629 H     749  UNL749      0.1146
   2995 H          12.3575   27.9032   16.6180 H     749  UNL749      0.1146
   2996 H          12.1194   28.5165   15.1293 H     749  UNL749      0.1146
   2997 N          11.6319   28.1632   18.5922 N.3   750  UNL750     -0.3437
   2998 H          11.1902   27.2914   18.3037 H     750  UNL750      0.1146
   2999 H          12.3575   27.9032   19.2588 H     750  UNL750      0.1146
   3000 H          12.1194   28.5165   17.7701 H     750  UNL750      0.1146
   3001 N          11.6319   28.1632   21.2331 N.3   751  UNL751     -0.3437
   3002 H          11.1902   27.2914   20.9446 H     751  UNL751      0.1146
   3003 H          12.3575   27.9032   21.8997 H     751  UNL751      0.1146
   3004 H          12.1194   28.5165   20.4110 H     751  UNL751      0.1146
   3005 N          11.6319   30.7608   -0.2269 N.3   752  UNL752     -0.3437
   3006 H          11.1902   31.0514    0.6442 H     752  UNL752      0.1146
   3007 H          12.3575   31.4504   -0.4176 H     752  UNL752      0.1146
   3008 H          12.1194   29.8907   -0.0180 H     752  UNL752      0.1146
   3009 N          11.6319   30.7608    2.4140 N.3   753  UNL753     -0.3437
   3010 H          11.1902   31.0514    3.2851 H     753  UNL753      0.1146
   3011 H          12.3575   31.4504    2.2233 H     753  UNL753      0.1146
   3012 H          12.1194   29.8907    2.6229 H     753  UNL753      0.1146
   3013 N          11.6319   30.7608    5.0548 N.3   754  UNL754     -0.3437
   3014 H          11.1902   31.0514    5.9259 H     754  UNL754      0.1146
   3015 H          12.3575   31.4504    4.8641 H     754  UNL754      0.1146
   3016 H          12.1194   29.8907    5.2637 H     754  UNL754      0.1146
   3017 N          11.6319   30.7608    7.6956 N.3   755  UNL755     -0.3437
   3018 H          11.1902   31.0514    8.5667 H     755  UNL755      0.1146
   3019 H          12.3575   31.4504    7.5049 H     755  UNL755      0.1146
   3020 H          12.1194   29.8907    7.9045 H     755  UNL755      0.1146
   3021 N           9.6319   30.7608   10.3364 N.3   756  UNL756     -0.3437
   3022 H           9.1902   31.0514   11.2075 H     756  UNL756      0.1146
   3023 H          10.3575   31.4504   10.1457 H     756  UNL756      0.1146
   3024 H          10.1194   29.8907   10.5453 H     756  UNL756      0.1146
   3025 N          11.6319   30.7608   12.9773 N.3   757  UNL757     -0.3437
   3026 H          11.1902   31.0514   13.8484 H     757  UNL757      0.1146
   3027 H          12.3575   31.4504   12.7866 H     757  UNL757      0.1146
   3028 H          12.1194   29.8907   13.1862 H     757  UNL757      0.1146
   3029 N          11.6319   30.7608   15.6181 N.3   758  UNL758     -0.3437
   3030 H          11.1902   31.0514   16.4892 H     758  UNL758      0.1146
   3031 H          12.3575   31.4504   15.4274 H     758  UNL758      0.1146
   3032 H          12.1194   29.8907   15.8270 H     758  UNL758      0.1146
   3033 N          11.6319   30.7608   18.2589 N.3   759  UNL759     -0.3437
   3034 H          11.1902   31.0514   19.1300 H     759  UNL759      0.1146
   3035 H          12.3575   31.4504   18.0682 H     759  UNL759      0.1146
   3036 H          12.1194   29.8907   18.4678 H     759  UNL759      0.1146
   3037 N          11.6319   30.7608   20.8997 N.3   760  UNL760     -0.3437
   3038 H          11.1902   31.0514   21.7708 H     760  UNL760      0.1146
   3039 H          12.3575   31.4504   20.7090 H     760  UNL760      0.1146
   3040 H          12.1194   29.8907   21.1086 H     760  UNL760      0.1146
   3041 N          11.6319   33.5806   -0.2269 N.3   761  UNL761     -0.3437
   3042 H          11.1902   33.8712    0.6442 H     761  UNL761      0.1146
   3043 H          12.3575   34.2702   -0.4176 H     761  UNL761      0.1146
   3044 H          12.1194   32.7105   -0.0180 H     761  UNL761      0.1146
   3045 N          11.6319   33.5806    2.4140 N.3   762  UNL762     -0.3437
   3046 H          11.1902   33.8712    3.2851 H     762  UNL762      0.1146
   3047 H          12.3575   34.2702    2.2233 H     762  UNL762      0.1146
   3048 H          12.1194   32.7105    2.6229 H     762  UNL762      0.1146
   3049 N          11.6319   33.5806    5.0548 N.3   763  UNL763     -0.3437
   3050 H          11.1902   33.8712    5.9259 H     763  UNL763      0.1146
   3051 H          12.3575   34.2702    4.8641 H     763  UNL763      0.1146
   3052 H          12.1194   32.7105    5.2637 H     763  UNL763      0.1146
   3053 N          11.6319   33.5806    7.6956 N.3   764  UNL764     -0.3437
   3054 H          11.1902   33.8712    8.5667 H     764  UNL764      0.1146
   3055 H          12.3575   34.2702    7.5049 H     764  UNL764      0.1146
   3056 H          12.1194   32.7105    7.9045 H     764  UNL764      0.1146
   3057 N          11.6319   33.5806   10.3364 N.3   765  UNL765     -0.3437
   3058 H          11.1902   33.8712   11.2075 H     765  UNL765      0.1146
   3059 H          12.3575   34.2702   10.1457 H     765  UNL765      0.1146
   3060 H          12.1194   32.7105   10.5453 H     765  UNL765      0.1146
   3061 N          11.6319   33.5806   12.9773 N.3   766  UNL766     -0.3437
   3062 H          11.1902   33.8712   13.8484 H     766  UNL766      0.1146
   3063 H          12.3575   34.2702   12.7866 H     766  UNL766      0.1146
   3064 H          12.1194   32.7105   13.1862 H     766  UNL766      0.1146
   3065 N          11.6319   33.5806   15.6181 N.3   767  UNL767     -0.3437
   3066 H          11.1902   33.8712   16.4892 H     767  UNL767      0.1146
   3067 H          12.3575   34.2702   15.4274 H     767  UNL767      0.1146
   3068 H          12.1194   32.7105   15.8270 H     767  UNL767      0.1146
   3069 N          11.6319   33.5806   18.2589 N.3   768  UNL768     -0.3437
   3070 H          11.1902   33.8712   19.1300 H     768  UNL768      0.1146
   3071 H          12.3575   34.2702   18.0682 H     768  UNL768      0.1146
   3072 H          12.1194   32.7105   18.4678 H     768  UNL768      0.1146
   3073 N          11.6319   33.5806   20.8997 N.3   769  UNL769     -0.3437
   3074 H          11.1902   33.8712   21.7708 H     769  UNL769      0.1146
   3075 H          12.3575   34.2702   20.7090 H     769  UNL769      0.1146
   3076 H          12.1194   32.7105   21.1086 H     769  UNL769      0.1146
   3077 N          11.7621   36.4004    0.2830 N.3   770  UNL770     -0.3437
   3078 H          12.7243   36.6910    0.1156 H     770  UNL770      0.1146
   3079 H          11.1751   37.0900   -0.1842 H     770  UNL770      0.1146
   3080 H          11.6377   35.5303   -0.2326 H     770  UNL770      0.1146
   3081 N          11.6319   36.4004    2.4140 N.3   771  UNL771     -0.3437
   3082 H          11.1902   36.6910    3.2851 H     771  UNL771      0.1146
   3083 H          12.3575   37.0900    2.2233 H     771  UNL771      0.1146
   3084 H          12.1194   35.5303    2.6229 H     771  UNL771      0.1146
   3085 N          11.6319   36.2663    5.4322 N.3   772  UNL772     -0.3437
   3086 H          11.1902   36.7902    4.6781 H     772  UNL772      0.1146
   3087 H          12.3575   35.7008    4.9939 H     772  UNL772      0.1146
   3088 H          12.1194   36.9543    6.0043 H     772  UNL772      0.1146
   3089 N          11.6319   36.4004    7.6956 N.3   773  UNL773     -0.3437
   3090 H          11.1902   36.6910    8.5667 H     773  UNL773      0.1146
   3091 H          12.3575   37.0900    7.5049 H     773  UNL773      0.1146
   3092 H          12.1194   35.5303    7.9045 H     773  UNL773      0.1146
   3093 N          11.6319   36.4004   10.3364 N.3   774  UNL774     -0.3437
   3094 H          11.1902   36.6910   11.2075 H     774  UNL774      0.1146
   3095 H          12.3575   37.0900   10.1457 H     774  UNL774      0.1146
   3096 H          12.1194   35.5303   10.5453 H     774  UNL774      0.1146
   3097 N          11.6319   36.4004   12.9773 N.3   775  UNL775     -0.3437
   3098 H          11.1902   36.6910   13.8484 H     775  UNL775      0.1146
   3099 H          12.3575   37.0900   12.7866 H     775  UNL775      0.1146
   3100 H          12.1194   35.5303   13.1862 H     775  UNL775      0.1146
   3101 N          11.6319   36.4004   15.6181 N.3   776  UNL776     -0.3437
   3102 H          11.1902   36.6910   16.4892 H     776  UNL776      0.1146
   3103 H          12.3575   37.0900   15.4274 H     776  UNL776      0.1146
   3104 H          12.1194   35.5303   15.8270 H     776  UNL776      0.1146
   3105 N          11.6319   36.4004   18.2589 N.3   777  UNL777     -0.3437
   3106 H          11.1902   36.6910   19.1300 H     777  UNL777      0.1146
   3107 H          12.3575   37.0900   18.0682 H     777  UNL777      0.1146
   3108 H          12.1194   35.5303   18.4678 H     777  UNL777      0.1146
   3109 N          11.6319   36.4004   20.8997 N.3   778  UNL778     -0.3437
   3110 H          11.1902   36.6910   21.7708 H     778  UNL778      0.1146
   3111 H          12.3575   37.0900   20.7090 H     778  UNL778      0.1146
   3112 H          12.1194   35.5303   21.1086 H     778  UNL778      0.1146
   3113 N          11.6319   39.4423    0.1065 N.3   779  UNL779     -0.3437
   3114 H          11.1902   38.5705   -0.1820 H     779  UNL779      0.1146
   3115 H          12.3575   39.1824    0.7731 H     779  UNL779      0.1146
   3116 H          12.1194   39.7956   -0.7156 H     779  UNL779      0.1146
   3117 N          11.6319   39.4423    2.7473 N.3   780  UNL780     -0.3437
   3118 H          11.1902   38.5705    2.4588 H     780  UNL780      0.1146
   3119 H          12.3575   39.1824    3.4139 H     780  UNL780      0.1146
   3120 H          12.1194   39.7956    1.9252 H     780  UNL780      0.1146
   3121 N          11.6319   39.4423    5.3881 N.3   781  UNL781     -0.3437
   3122 H          11.1902   38.5705    5.0996 H     781  UNL781      0.1146
   3123 H          12.3575   39.1824    6.0547 H     781  UNL781      0.1146
   3124 H          12.1194   39.7956    4.5660 H     781  UNL781      0.1146
   3125 N          11.6319   39.4423    8.0289 N.3   782  UNL782     -0.3437
   3126 H          11.1902   38.5705    7.7404 H     782  UNL782      0.1146
   3127 H          12.3575   39.1824    8.6955 H     782  UNL782      0.1146
   3128 H          12.1194   39.7956    7.2068 H     782  UNL782      0.1146
   3129 N          11.6319   39.2202   10.3364 N.3   783  UNL783     -0.3437
   3130 H          11.1902   39.5108   11.2075 H     783  UNL783      0.1146
   3131 H          12.3575   39.9098   10.1457 H     783  UNL783      0.1146
   3132 H          12.1194   38.3501   10.5453 H     783  UNL783      0.1146
   3133 N          11.6319   39.2202   12.9773 N.3   784  UNL784     -0.3437
   3134 H          11.1902   39.5108   13.8484 H     784  UNL784      0.1146
   3135 H          12.3575   39.9098   12.7866 H     784  UNL784      0.1146
   3136 H          12.1194   38.3501   13.1862 H     784  UNL784      0.1146
   3137 N          11.6319   39.2202   15.6181 N.3   785  UNL785     -0.3437
   3138 H          11.1902   39.5108   16.4892 H     785  UNL785      0.1146
   3139 H          12.3575   39.9098   15.4274 H     785  UNL785      0.1146
   3140 H          12.1194   38.3501   15.8270 H     785  UNL785      0.1146
   3141 N          11.6319   39.2202   18.2589 N.3   786  UNL786     -0.3437
   3142 H          11.1902   39.5108   19.1300 H     786  UNL786      0.1146
   3143 H          12.3575   39.9098   18.0682 H     786  UNL786      0.1146
   3144 H          12.1194   38.3501   18.4678 H     786  UNL786      0.1146
   3145 N          11.6319   39.2202   20.8997 N.3   787  UNL787     -0.3437
   3146 H          11.1902   39.5108   21.7708 H     787  UNL787      0.1146
   3147 H          12.3575   39.9098   20.7090 H     787  UNL787      0.1146
   3148 H          12.1194   38.3501   21.1086 H     787  UNL787      0.1146
   3149 N          14.1636   -0.2567   -0.2269 N.3   788  UNL788     -0.3437
   3150 H          13.7219    0.0339    0.6442 H     788  UNL788      0.1146
   3151 H          14.8892    0.4329   -0.4176 H     788  UNL788      0.1146
   3152 H          14.6511   -1.1268   -0.0180 H     788  UNL788      0.1146
   3153 N          14.1636   -0.2567    2.4140 N.3   789  UNL789     -0.3437
   3154 H          13.7219    0.0339    3.2851 H     789  UNL789      0.1146
   3155 H          14.8892    0.4329    2.2233 H     789  UNL789      0.1146
   3156 H          14.6511   -1.1268    2.6229 H     789  UNL789      0.1146
   3157 N          14.1636   -0.2567    5.0548 N.3   790  UNL790     -0.3437
   3158 H          13.7219    0.0339    5.9259 H     790  UNL790      0.1146
   3159 H          14.8892    0.4329    4.8641 H     790  UNL790      0.1146
   3160 H          14.6511   -1.1268    5.2637 H     790  UNL790      0.1146
   3161 N          14.1636   -0.2567    7.6956 N.3   791  UNL791     -0.3437
   3162 H          13.7219    0.0339    8.5667 H     791  UNL791      0.1146
   3163 H          14.8892    0.4329    7.5049 H     791  UNL791      0.1146
   3164 H          14.6511   -1.1268    7.9045 H     791  UNL791      0.1146
   3165 N          14.1636   -0.2567   10.3364 N.3   792  UNL792     -0.3437
   3166 H          13.7219    0.0339   11.2075 H     792  UNL792      0.1146
   3167 H          14.8892    0.4329   10.1457 H     792  UNL792      0.1146
   3168 H          14.6511   -1.1268   10.5453 H     792  UNL792      0.1146
   3169 N          14.3702   -0.0413   12.9718 N.3   793  UNL793     -0.3437
   3170 H          13.7488    0.2816   13.7120 H     793  UNL793      0.1146
   3171 H          15.2764   -0.1936   13.4124 H     793  UNL793      0.1146
   3172 H          14.0306   -0.9634   12.7021 H     793  UNL793      0.1146
   3173 N          14.1636   -0.2567   15.6181 N.3   794  UNL794     -0.3437
   3174 H          13.7219    0.0339   16.4892 H     794  UNL794      0.1146
   3175 H          14.8892    0.4329   15.4274 H     794  UNL794      0.1146
   3176 H          14.6511   -1.1268   15.8270 H     794  UNL794      0.1146
   3177 N          14.1636   -0.2567   18.2589 N.3   795  UNL795     -0.3437
   3178 H          13.7219    0.0339   19.1300 H     795  UNL795      0.1146
   3179 H          14.8892    0.4329   18.0682 H     795  UNL795      0.1146
   3180 H          14.6511   -1.1268   18.4678 H     795  UNL795      0.1146
   3181 N          14.1636   -0.2567   20.8997 N.3   796  UNL796     -0.3437
   3182 H          13.7219    0.0339   21.7708 H     796  UNL796      0.1146
   3183 H          14.8892    0.4329   20.7090 H     796  UNL796      0.1146
   3184 H          14.6511   -1.1268   21.1086 H     796  UNL796      0.1146
   3185 N          14.1636    2.5631   -0.2269 N.3   797  UNL797     -0.3437
   3186 H          13.7219    2.8537    0.6442 H     797  UNL797      0.1146
   3187 H          14.8892    3.2527   -0.4176 H     797  UNL797      0.1146
   3188 H          14.6511    1.6930   -0.0180 H     797  UNL797      0.1146
   3189 N          14.1636    2.5631    2.4140 N.3   798  UNL798     -0.3437
   3190 H          13.7219    2.8537    3.2851 H     798  UNL798      0.1146
   3191 H          14.8892    3.2527    2.2233 H     798  UNL798      0.1146
   3192 H          14.6511    1.6930    2.6229 H     798  UNL798      0.1146
   3193 N          14.1636    2.5631    5.0548 N.3   799  UNL799     -0.3437
   3194 H          13.7219    2.8537    5.9259 H     799  UNL799      0.1146
   3195 H          14.8892    3.2527    4.8641 H     799  UNL799      0.1146
   3196 H          14.6511    1.6930    5.2637 H     799  UNL799      0.1146
   3197 N          14.1636    2.5631    7.6956 N.3   800  UNL800     -0.3437
   3198 H          13.7219    2.8537    8.5667 H     800  UNL800      0.1146
   3199 H          14.8892    3.2527    7.5049 H     800  UNL800      0.1146
   3200 H          14.6511    1.6930    7.9045 H     800  UNL800      0.1146
   3201 N          14.4499    2.7616   10.3364 N.3   801  UNL801     -0.3437
   3202 H          14.9470    2.9415   11.2075 H     801  UNL801      0.1146
   3203 H          14.5681    1.7676   10.1457 H     801  UNL801      0.1146
   3204 H          13.4610    2.8917   10.5453 H     801  UNL801      0.1146
   3205 N          14.1636    2.5631   12.9773 N.3   802  UNL802     -0.3437
   3206 H          13.7219    2.8537   13.8484 H     802  UNL802      0.1146
   3207 H          14.8892    3.2527   12.7866 H     802  UNL802      0.1146
   3208 H          14.6511    1.6930   13.1862 H     802  UNL802      0.1146
   3209 N          14.1636    2.5631   15.6181 N.3   803  UNL803     -0.3437
   3210 H          13.7219    2.8537   16.4892 H     803  UNL803      0.1146
   3211 H          14.8892    3.2527   15.4274 H     803  UNL803      0.1146
   3212 H          14.6511    1.6930   15.8270 H     803  UNL803      0.1146
   3213 N          14.1636    2.5631   18.2589 N.3   804  UNL804     -0.3437
   3214 H          13.7219    2.8537   19.1300 H     804  UNL804      0.1146
   3215 H          14.8892    3.2527   18.0682 H     804  UNL804      0.1146
   3216 H          14.6511    1.6930   18.4678 H     804  UNL804      0.1146
   3217 N          14.1636    2.7852   21.2331 N.3   805  UNL805     -0.3437
   3218 H          13.7219    1.9134   20.9446 H     805  UNL805      0.1146
   3219 H          14.8892    2.5253   21.8997 H     805  UNL805      0.1146
   3220 H          14.6511    3.1385   20.4110 H     805  UNL805      0.1146
   3221 N          14.1636    5.6050    0.1065 N.3   806  UNL806     -0.3437
   3222 H          13.7219    4.7332   -0.1820 H     806  UNL806      0.1146
   3223 H          14.8892    5.3450    0.7731 H     806  UNL806      0.1146
   3224 H          14.6511    5.9583   -0.7156 H     806  UNL806      0.1146
   3225 N          14.1636    5.6050    2.7473 N.3   807  UNL807     -0.3437
   3226 H          13.7219    4.7332    2.4588 H     807  UNL807      0.1146
   3227 H          14.8892    5.3450    3.4139 H     807  UNL807      0.1146
   3228 H          14.6511    5.9583    1.9252 H     807  UNL807      0.1146
   3229 N          14.1636    5.6050    5.3881 N.3   808  UNL808     -0.3437
   3230 H          13.7219    4.7332    5.0996 H     808  UNL808      0.1146
   3231 H          14.8892    5.3450    6.0547 H     808  UNL808      0.1146
   3232 H          14.6511    5.9583    4.5660 H     808  UNL808      0.1146
   3233 N          14.1636    5.6050    8.0289 N.3   809  UNL809     -0.3437
   3234 H          13.7219    4.7332    7.7404 H     809  UNL809      0.1146
   3235 H          14.8892    5.3450    8.6955 H     809  UNL809      0.1146
   3236 H          14.6511    5.9583    7.2068 H     809  UNL809      0.1146
   3237 N          14.1636    5.6050   10.6698 N.3   810  UNL810     -0.3437
   3238 H          13.7219    4.7332   10.3813 H     810  UNL810      0.1146
   3239 H          14.8892    5.3450   11.3364 H     810  UNL810      0.1146
   3240 H          14.6511    5.9583    9.8477 H     810  UNL810      0.1146
   3241 N          14.1636    5.6050   13.3106 N.3   811  UNL811     -0.3437
   3242 H          13.7219    4.7332   13.0221 H     811  UNL811      0.1146
   3243 H          14.8892    5.3450   13.9772 H     811  UNL811      0.1146
   3244 H          14.6511    5.9583   12.4885 H     811  UNL811      0.1146
   3245 N          14.1636    5.6050   15.9514 N.3   812  UNL812     -0.3437
   3246 H          13.7219    4.7332   15.6629 H     812  UNL812      0.1146
   3247 H          14.8892    5.3450   16.6180 H     812  UNL812      0.1146
   3248 H          14.6511    5.9583   15.1293 H     812  UNL812      0.1146
   3249 N          14.1636    5.6050   18.5922 N.3   813  UNL813     -0.3437
   3250 H          13.7219    4.7332   18.3037 H     813  UNL813      0.1146
   3251 H          14.8892    5.3450   19.2588 H     813  UNL813      0.1146
   3252 H          14.6511    5.9583   17.7701 H     813  UNL813      0.1146
   3253 N          14.1636    5.3829   20.8997 N.3   814  UNL814     -0.3437
   3254 H          13.7219    5.6735   21.7708 H     814  UNL814      0.1146
   3255 H          14.8892    6.0725   20.7090 H     814  UNL814      0.1146
   3256 H          14.6511    4.5128   21.1086 H     814  UNL814      0.1146
   3257 N          14.1636    8.2026   -0.2269 N.3   815  UNL815     -0.3437
   3258 H          13.7219    8.4932    0.6442 H     815  UNL815      0.1146
   3259 H          14.8892    8.8922   -0.4176 H     815  UNL815      0.1146
   3260 H          14.6511    7.3325   -0.0180 H     815  UNL815      0.1146
   3261 N          14.1636    8.2026    2.4140 N.3   816  UNL816     -0.3437
   3262 H          13.7219    8.4932    3.2851 H     816  UNL816      0.1146
   3263 H          14.8892    8.8922    2.2233 H     816  UNL816      0.1146
   3264 H          14.6511    7.3325    2.6229 H     816  UNL816      0.1146
   3265 N          14.1636    8.2026    5.0548 N.3   817  UNL817     -0.3437
   3266 H          13.7219    8.4932    5.9259 H     817  UNL817      0.1146
   3267 H          14.8892    8.8922    4.8641 H     817  UNL817      0.1146
   3268 H          14.6511    7.3325    5.2637 H     817  UNL817      0.1146
   3269 N          14.1636    8.2026    7.6956 N.3   818  UNL818     -0.3437
   3270 H          13.7219    8.4932    8.5667 H     818  UNL818      0.1146
   3271 H          14.8892    8.8922    7.5049 H     818  UNL818      0.1146
   3272 H          14.6511    7.3325    7.9045 H     818  UNL818      0.1146
   3273 N          12.1636    8.2026   10.3364 N.3   819  UNL819     -0.3437
   3274 H          11.7219    8.4932   11.2075 H     819  UNL819      0.1146
   3275 H          12.8892    8.8922   10.1457 H     819  UNL819      0.1146
   3276 H          12.6511    7.3325   10.5453 H     819  UNL819      0.1146
   3277 N          14.2938    8.2026   13.4871 N.3   820  UNL820     -0.3437
   3278 H          15.2560    8.4932   13.3197 H     820  UNL820      0.1146
   3279 H          13.7068    8.8922   13.0199 H     820  UNL820      0.1146
   3280 H          14.1694    7.3325   12.9716 H     820  UNL820      0.1146
   3281 N          14.1636    8.2026   15.6181 N.3   821  UNL821     -0.3437
   3282 H          13.7219    8.4932   16.4892 H     821  UNL821      0.1146
   3283 H          14.8892    8.8922   15.4274 H     821  UNL821      0.1146
   3284 H          14.6511    7.3325   15.8270 H     821  UNL821      0.1146
   3285 N          14.1636    8.2026   18.2589 N.3   822  UNL822     -0.3437
   3286 H          13.7219    8.4932   19.1300 H     822  UNL822      0.1146
   3287 H          14.8892    8.8922   18.0682 H     822  UNL822      0.1146
   3288 H          14.6511    7.3325   18.4678 H     822  UNL822      0.1146
   3289 N          14.1636    8.2026   20.8997 N.3   823  UNL823     -0.3437
   3290 H          13.7219    8.4932   21.7708 H     823  UNL823      0.1146
   3291 H          14.8892    8.8922   20.7090 H     823  UNL823      0.1146
   3292 H          14.6511    7.3325   21.1086 H     823  UNL823      0.1146
   3293 N          14.1636   11.2445    0.1065 N.3   824  UNL824     -0.3437
   3294 H          13.7219   10.3727   -0.1820 H     824  UNL824      0.1146
   3295 H          14.8892   10.9846    0.7731 H     824  UNL824      0.1146
   3296 H          14.6511   11.5979   -0.7156 H     824  UNL824      0.1146
   3297 N          12.2938   11.0224    2.9238 N.3   825  UNL825     -0.3437
   3298 H          13.2560   11.3130    2.7564 H     825  UNL825      0.1146
   3299 H          11.7068   11.7120    2.4566 H     825  UNL825      0.1146
   3300 H          12.1694   10.1523    2.4083 H     825  UNL825      0.1146
   3301 N          14.1636   11.2445    5.3881 N.3   826  UNL826     -0.3437
   3302 H          13.7219   10.3727    5.0996 H     826  UNL826      0.1146
   3303 H          14.8892   10.9846    6.0547 H     826  UNL826      0.1146
   3304 H          14.6511   11.5979    4.5660 H     826  UNL826      0.1146
   3305 N          14.1636   11.2445    8.0289 N.3   827  UNL827     -0.3437
   3306 H          13.7219   10.3727    7.7404 H     827  UNL827      0.1146
   3307 H          14.8892   10.9846    8.6955 H     827  UNL827      0.1146
   3308 H          14.6511   11.5979    7.2068 H     827  UNL827      0.1146
   3309 N          14.1636   11.0224   10.3364 N.3   828  UNL828     -0.3437
   3310 H          13.7219   11.3130   11.2075 H     828  UNL828      0.1146
   3311 H          14.8892   11.7120   10.1457 H     828  UNL828      0.1146
   3312 H          14.6511   10.1523   10.5453 H     828  UNL828      0.1146
   3313 N          14.1636   11.0224   12.9773 N.3   829  UNL829     -0.3437
   3314 H          13.7219   11.3130   13.8484 H     829  UNL829      0.1146
   3315 H          14.8892   11.7120   12.7866 H     829  UNL829      0.1146
   3316 H          14.6511   10.1523   13.1862 H     829  UNL829      0.1146
   3317 N          14.1636   10.8883   15.9955 N.3   830  UNL830     -0.3437
   3318 H          13.7219   11.4123   15.2414 H     830  UNL830      0.1146
   3319 H          14.8892   10.3228   15.5572 H     830  UNL830      0.1146
   3320 H          14.6511   11.5764   16.5676 H     830  UNL830      0.1146
   3321 N          14.1636   11.2445   18.5922 N.3   831  UNL831     -0.3437
   3322 H          13.7219   10.3727   18.3037 H     831  UNL831      0.1146
   3323 H          14.8892   10.9846   19.2588 H     831  UNL831      0.1146
   3324 H          14.6511   11.5979   17.7701 H     831  UNL831      0.1146
   3325 N          14.1636   11.2445   21.2331 N.3   832  UNL832     -0.3437
   3326 H          13.7219   10.3727   20.9446 H     832  UNL832      0.1146
   3327 H          14.8892   10.9846   21.8997 H     832  UNL832      0.1146
   3328 H          14.6511   11.5979   20.4110 H     832  UNL832      0.1146
   3329 N          14.1636   14.0643    0.1065 N.3   833  UNL833     -0.3437
   3330 H          13.7219   13.1925   -0.1820 H     833  UNL833      0.1146
   3331 H          14.8892   13.8044    0.7731 H     833  UNL833      0.1146
   3332 H          14.6511   14.4176   -0.7156 H     833  UNL833      0.1146
   3333 N          14.1636   14.0643    2.7473 N.3   834  UNL834     -0.3437
   3334 H          13.7219   13.1925    2.4588 H     834  UNL834      0.1146
   3335 H          14.8892   13.8044    3.4139 H     834  UNL834      0.1146
   3336 H          14.6511   14.4176    1.9252 H     834  UNL834      0.1146
   3337 N          14.1636   14.0643    5.3881 N.3   835  UNL835     -0.3437
   3338 H          13.7219   13.1925    5.0996 H     835  UNL835      0.1146
   3339 H          14.8892   13.8044    6.0547 H     835  UNL835      0.1146
   3340 H          14.6511   14.4176    4.5660 H     835  UNL835      0.1146
   3341 N          14.1636   14.0643    8.0289 N.3   836  UNL836     -0.3437
   3342 H          13.7219   13.1925    7.7404 H     836  UNL836      0.1146
   3343 H          14.8892   13.8044    8.6955 H     836  UNL836      0.1146
   3344 H          14.6511   14.4176    7.2068 H     836  UNL836      0.1146
   3345 N          14.1636   13.8422   10.3364 N.3   837  UNL837     -0.3437
   3346 H          13.7219   14.1328   11.2075 H     837  UNL837      0.1146
   3347 H          14.8892   14.5318   10.1457 H     837  UNL837      0.1146
   3348 H          14.6511   12.9721   10.5453 H     837  UNL837      0.1146
   3349 N          12.1636   13.8422   12.9773 N.3   838  UNL838     -0.3437
   3350 H          11.7219   14.1328   13.8484 H     838  UNL838      0.1146
   3351 H          12.8892   14.5318   12.7866 H     838  UNL838      0.1146
   3352 H          12.6511   12.9721   13.1862 H     838  UNL838      0.1146
   3353 N          12.1636   13.8422   15.6181 N.3   839  UNL839     -0.3437
   3354 H          11.7219   14.1328   16.4892 H     839  UNL839      0.1146
   3355 H          12.8892   14.5318   15.4274 H     839  UNL839      0.1146
   3356 H          12.6511   12.9721   15.8270 H     839  UNL839      0.1146
   3357 N          14.1636   14.0643   18.5922 N.3   840  UNL840     -0.3437
   3358 H          13.7219   13.1925   18.3037 H     840  UNL840      0.1146
   3359 H          14.8892   13.8044   19.2588 H     840  UNL840      0.1146
   3360 H          14.6511   14.4176   17.7701 H     840  UNL840      0.1146
   3361 N          14.1636   14.0643   21.2331 N.3   841  UNL841     -0.3437
   3362 H          13.7219   13.1925   20.9446 H     841  UNL841      0.1146
   3363 H          14.8892   13.8044   21.8997 H     841  UNL841      0.1146
   3364 H          14.6511   14.4176   20.4110 H     841  UNL841      0.1146
   3365 N          14.1636   16.6619    0.4140 N.3   842  UNL842     -0.3437
   3366 H          13.7219   16.9525    1.2851 H     842  UNL842      0.1146
   3367 H          14.8892   17.3516    0.2233 H     842  UNL842      0.1146
   3368 H          14.6511   15.7919    0.6229 H     842  UNL842      0.1146
   3369 N          14.1636   16.6619    3.0548 N.3   843  UNL843     -0.3437
   3370 H          13.7219   16.9525    3.9259 H     843  UNL843      0.1146
   3371 H          14.8892   17.3516    2.8641 H     843  UNL843      0.1146
   3372 H          14.6511   15.7919    3.2637 H     843  UNL843      0.1146
   3373 N          14.1636   16.6619    5.6956 N.3   844  UNL844     -0.3437
   3374 H          13.7219   16.9525    6.5667 H     844  UNL844      0.1146
   3375 H          14.8892   17.3516    5.5049 H     844  UNL844      0.1146
   3376 H          14.6511   15.7919    5.9045 H     844  UNL844      0.1146
   3377 N          14.1636   16.6619   10.3364 N.3   845  UNL845     -0.3437
   3378 H          13.7219   16.9525   11.2075 H     845  UNL845      0.1146
   3379 H          14.8892   17.3516   10.1457 H     845  UNL845      0.1146
   3380 H          14.6511   15.7919   10.5453 H     845  UNL845      0.1146
   3381 N          14.1636   16.6619   12.9773 N.3   846  UNL846     -0.3437
   3382 H          13.7219   16.9525   13.8484 H     846  UNL846      0.1146
   3383 H          14.8892   17.3516   12.7866 H     846  UNL846      0.1146
   3384 H          14.6511   15.7919   13.1862 H     846  UNL846      0.1146
   3385 N          14.1636   16.6619   15.6181 N.3   847  UNL847     -0.3437
   3386 H          13.7219   16.9525   16.4892 H     847  UNL847      0.1146
   3387 H          14.8892   17.3516   15.4274 H     847  UNL847      0.1146
   3388 H          14.6511   15.7919   15.8270 H     847  UNL847      0.1146
   3389 N          14.1636   16.8841   18.5922 N.3   848  UNL848     -0.3437
   3390 H          13.7219   16.0123   18.3037 H     848  UNL848      0.1146
   3391 H          14.8892   16.6241   19.2588 H     848  UNL848      0.1146
   3392 H          14.6511   17.2374   17.7701 H     848  UNL848      0.1146
   3393 N          14.1636   16.8841   21.2331 N.3   849  UNL849     -0.3437
   3394 H          13.7219   16.0123   20.9446 H     849  UNL849      0.1146
   3395 H          14.8892   16.6241   21.8997 H     849  UNL849      0.1146
   3396 H          14.6511   17.2374   20.4110 H     849  UNL849      0.1146
   3397 N          14.1636   19.7038    0.1065 N.3   850  UNL850     -0.3437
   3398 H          13.7219   18.8320   -0.1820 H     850  UNL850      0.1146
   3399 H          14.8892   19.4439    0.7731 H     850  UNL850      0.1146
   3400 H          14.6511   20.0572   -0.7156 H     850  UNL850      0.1146
   3401 N          14.1636   19.7038    2.7473 N.3   851  UNL851     -0.3437
   3402 H          13.7219   18.8320    2.4588 H     851  UNL851      0.1146
   3403 H          14.8892   19.4439    3.4139 H     851  UNL851      0.1146
   3404 H          14.6511   20.0572    1.9252 H     851  UNL851      0.1146
   3405 N          14.1636   19.7038    5.3881 N.3   852  UNL852     -0.3437
   3406 H          13.7219   18.8320    5.0996 H     852  UNL852      0.1146
   3407 H          14.8892   19.4439    6.0547 H     852  UNL852      0.1146
   3408 H          14.6511   20.0572    4.5660 H     852  UNL852      0.1146
   3409 N          14.1636   19.7038    8.0289 N.3   853  UNL853     -0.3437
   3410 H          13.7219   18.8320    7.7404 H     853  UNL853      0.1146
   3411 H          14.8892   19.4439    8.6955 H     853  UNL853      0.1146
   3412 H          14.6511   20.0572    7.2068 H     853  UNL853      0.1146
   3413 N          14.1636   19.4817   10.3364 N.3   854  UNL854     -0.3437
   3414 H          13.7219   19.7723   11.2075 H     854  UNL854      0.1146
   3415 H          14.8892   20.1713   10.1457 H     854  UNL854      0.1146
   3416 H          14.6511   18.6116   10.5453 H     854  UNL854      0.1146
   3417 N          14.1636   19.3476   13.3547 N.3   855  UNL855     -0.3437
   3418 H          13.7219   19.8716   12.6006 H     855  UNL855      0.1146
   3419 H          14.8892   18.7821   12.9163 H     855  UNL855      0.1146
   3420 H          14.6511   20.0357   13.9268 H     855  UNL855      0.1146
   3421 N          14.1636   19.7038   15.9514 N.3   856  UNL856     -0.3437
   3422 H          13.7219   18.8320   15.6629 H     856  UNL856      0.1146
   3423 H          14.8892   19.4439   16.6180 H     856  UNL856      0.1146
   3424 H          14.6511   20.0572   15.1293 H     856  UNL856      0.1146
   3425 N          14.1636   19.7038   18.5922 N.3   857  UNL857     -0.3437
   3426 H          13.7219   18.8320   18.3037 H     857  UNL857      0.1146
   3427 H          14.8892   19.4439   19.2588 H     857  UNL857      0.1146
   3428 H          14.6511   20.0572   17.7701 H     857  UNL857      0.1146
   3429 N          14.1636   19.7038   21.2331 N.3   858  UNL858     -0.3437
   3430 H          13.7219   18.8320   20.9446 H     858  UNL858      0.1146
   3431 H          14.8892   19.4439   21.8997 H     858  UNL858      0.1146
   3432 H          14.6511   20.0572   20.4110 H     858  UNL858      0.1146
   3433 N          14.1636   22.5236    0.1065 N.3   859  UNL859     -0.3437
   3434 H          13.7219   21.6518   -0.1820 H     859  UNL859      0.1146
   3435 H          14.8892   22.2637    0.7731 H     859  UNL859      0.1146
   3436 H          14.6511   22.8770   -0.7156 H     859  UNL859      0.1146
   3437 N          12.3702   22.5169    2.4085 N.3   860  UNL860     -0.3437
   3438 H          11.7488   22.8398    3.1487 H     860  UNL860      0.1146
   3439 H          13.2764   22.3646    2.8491 H     860  UNL860      0.1146
   3440 H          12.0306   21.5948    2.1388 H     860  UNL860      0.1146
   3441 N          14.1636   22.5236    5.3881 N.3   861  UNL861     -0.3437
   3442 H          13.7219   21.6518    5.0996 H     861  UNL861      0.1146
   3443 H          14.8892   22.2637    6.0547 H     861  UNL861      0.1146
   3444 H          14.6511   22.8770    4.5660 H     861  UNL861      0.1146
   3445 N          14.1636   22.5236    8.0289 N.3   862  UNL862     -0.3437
   3446 H          13.7219   21.6518    7.7404 H     862  UNL862      0.1146
   3447 H          14.8892   22.2637    8.6955 H     862  UNL862      0.1146
   3448 H          14.6511   22.8770    7.2068 H     862  UNL862      0.1146
   3449 N          14.1636   22.3015   10.3364 N.3   863  UNL863     -0.3437
   3450 H          13.7219   22.5921   11.2075 H     863  UNL863      0.1146
   3451 H          14.8892   22.9911   10.1457 H     863  UNL863      0.1146
   3452 H          14.6511   21.4314   10.5453 H     863  UNL863      0.1146
   3453 N          14.1636   22.3015   12.9773 N.3   864  UNL864     -0.3437
   3454 H          13.7219   22.5921   13.8484 H     864  UNL864      0.1146
   3455 H          14.8892   22.9911   12.7866 H     864  UNL864      0.1146
   3456 H          14.6511   21.4314   13.1862 H     864  UNL864      0.1146
   3457 N          14.1636   22.3015   15.6181 N.3   865  UNL865     -0.3437
   3458 H          13.7219   22.5921   16.4892 H     865  UNL865      0.1146
   3459 H          14.8892   22.9911   15.4274 H     865  UNL865      0.1146
   3460 H          14.6511   21.4314   15.8270 H     865  UNL865      0.1146
   3461 N          14.1636   22.5236   18.5922 N.3   866  UNL866     -0.3437
   3462 H          13.7219   21.6518   18.3037 H     866  UNL866      0.1146
   3463 H          14.8892   22.2637   19.2588 H     866  UNL866      0.1146
   3464 H          14.6511   22.8770   17.7701 H     866  UNL866      0.1146
   3465 N          12.2938   22.3015   21.4096 N.3   867  UNL867     -0.3437
   3466 H          13.2560   22.5921   21.2422 H     867  UNL867      0.1146
   3467 H          11.7068   22.9911   20.9424 H     867  UNL867      0.1146
   3468 H          12.1694   21.4314   20.8940 H     867  UNL867      0.1146
   3469 N          14.1636   25.1213    0.4140 N.3   868  UNL868     -0.3437
   3470 H          13.7219   25.4119    1.2851 H     868  UNL868      0.1146
   3471 H          14.8892   25.8109    0.2233 H     868  UNL868      0.1146
   3472 H          14.6511   24.2512    0.6229 H     868  UNL868      0.1146
   3473 N          14.1636   25.1213    3.0548 N.3   869  UNL869     -0.3437
   3474 H          13.7219   25.4119    3.9259 H     869  UNL869      0.1146
   3475 H          14.8892   25.8109    2.8641 H     869  UNL869      0.1146
   3476 H          14.6511   24.2512    3.2637 H     869  UNL869      0.1146
   3477 N          14.1636   25.1213    5.6956 N.3   870  UNL870     -0.3437
   3478 H          13.7219   25.4119    6.5667 H     870  UNL870      0.1146
   3479 H          14.8892   25.8109    5.5049 H     870  UNL870      0.1146
   3480 H          14.6511   24.2512    5.9045 H     870  UNL870      0.1146
   3481 N          14.1636   24.9872   10.7139 N.3   871  UNL871     -0.3437
   3482 H          13.7219   25.5111    9.9597 H     871  UNL871      0.1146
   3483 H          14.8892   24.4217   10.2755 H     871  UNL871      0.1146
   3484 H          14.6511   25.6752   11.2859 H     871  UNL871      0.1146
   3485 N          14.2938   25.1213   13.4871 N.3   872  UNL872     -0.3437
   3486 H          15.2560   25.4119   13.3197 H     872  UNL872      0.1146
   3487 H          13.7068   25.8109   13.0199 H     872  UNL872      0.1146
   3488 H          14.1694   24.2512   12.9716 H     872  UNL872      0.1146
   3489 N          14.1636   25.1213   15.6181 N.3   873  UNL873     -0.3437
   3490 H          13.7219   25.4119   16.4892 H     873  UNL873      0.1146
   3491 H          14.8892   25.8109   15.4274 H     873  UNL873      0.1146
   3492 H          14.6511   24.2512   15.8270 H     873  UNL873      0.1146
   3493 N          14.1636   25.3434   18.5922 N.3   874  UNL874     -0.3437
   3494 H          13.7219   24.4716   18.3037 H     874  UNL874      0.1146
   3495 H          14.8892   25.0835   19.2588 H     874  UNL874      0.1146
   3496 H          14.6511   25.6967   17.7701 H     874  UNL874      0.1146
   3497 N          14.1636   25.3434   21.2331 N.3   875  UNL875     -0.3437
   3498 H          13.7219   24.4716   20.9446 H     875  UNL875      0.1146
   3499 H          14.8892   25.0835   21.8997 H     875  UNL875      0.1146
   3500 H          14.6511   25.6967   20.4110 H     875  UNL875      0.1146
   3501 N          14.1636   28.1632    0.1065 N.3   876  UNL876     -0.3437
   3502 H          13.7219   27.2914   -0.1820 H     876  UNL876      0.1146
   3503 H          14.8892   27.9032    0.7731 H     876  UNL876      0.1146
   3504 H          14.6511   28.5165   -0.7156 H     876  UNL876      0.1146
   3505 N          14.1636   28.1632    2.7473 N.3   877  UNL877     -0.3437
   3506 H          13.7219   27.2914    2.4588 H     877  UNL877      0.1146
   3507 H          14.8892   27.9032    3.4139 H     877  UNL877      0.1146
   3508 H          14.6511   28.5165    1.9252 H     877  UNL877      0.1146
   3509 N          14.1636   28.1632    5.3881 N.3   878  UNL878     -0.3437
   3510 H          13.7219   27.2914    5.0996 H     878  UNL878      0.1146
   3511 H          14.8892   27.9032    6.0547 H     878  UNL878      0.1146
   3512 H          14.6511   28.5165    4.5660 H     878  UNL878      0.1146
   3513 N          14.1636   28.1632    8.0289 N.3   879  UNL879     -0.3437
   3514 H          13.7219   27.2914    7.7404 H     879  UNL879      0.1146
   3515 H          14.8892   27.9032    8.6955 H     879  UNL879      0.1146
   3516 H          14.6511   28.5165    7.2068 H     879  UNL879      0.1146
   3517 N          14.1636   28.1632   10.6698 N.3   880  UNL880     -0.3437
   3518 H          13.7219   27.2914   10.3813 H     880  UNL880      0.1146
   3519 H          14.8892   27.9032   11.3364 H     880  UNL880      0.1146
   3520 H          14.6511   28.5165    9.8477 H     880  UNL880      0.1146
   3521 N          14.1636   28.1632   13.3106 N.3   881  UNL881     -0.3437
   3522 H          13.7219   27.2914   13.0221 H     881  UNL881      0.1146
   3523 H          14.8892   27.9032   13.9772 H     881  UNL881      0.1146
   3524 H          14.6511   28.5165   12.4885 H     881  UNL881      0.1146
   3525 N          14.1636   28.1632   15.9514 N.3   882  UNL882     -0.3437
   3526 H          13.7219   27.2914   15.6629 H     882  UNL882      0.1146
   3527 H          14.8892   27.9032   16.6180 H     882  UNL882      0.1146
   3528 H          14.6511   28.5165   15.1293 H     882  UNL882      0.1146
   3529 N          14.1636   28.1632   18.5922 N.3   883  UNL883     -0.3437
   3530 H          13.7219   27.2914   18.3037 H     883  UNL883      0.1146
   3531 H          14.8892   27.9032   19.2588 H     883  UNL883      0.1146
   3532 H          14.6511   28.5165   17.7701 H     883  UNL883      0.1146
   3533 N          14.1636   28.1632   21.2331 N.3   884  UNL884     -0.3437
   3534 H          13.7219   27.2914   20.9446 H     884  UNL884      0.1146
   3535 H          14.8892   27.9032   21.8997 H     884  UNL884      0.1146
   3536 H          14.6511   28.5165   20.4110 H     884  UNL884      0.1146
   3537 N          14.1636   30.7608   -0.2269 N.3   885  UNL885     -0.3437
   3538 H          13.7219   31.0514    0.6442 H     885  UNL885      0.1146
   3539 H          14.8892   31.4504   -0.4176 H     885  UNL885      0.1146
   3540 H          14.6511   29.8907   -0.0180 H     885  UNL885      0.1146
   3541 N          14.1636   30.7608    2.4140 N.3   886  UNL886     -0.3437
   3542 H          13.7219   31.0514    3.2851 H     886  UNL886      0.1146
   3543 H          14.8892   31.4504    2.2233 H     886  UNL886      0.1146
   3544 H          14.6511   29.8907    2.6229 H     886  UNL886      0.1146
   3545 N          14.1636   30.7608    5.0548 N.3   887  UNL887     -0.3437
   3546 H          13.7219   31.0514    5.9259 H     887  UNL887      0.1146
   3547 H          14.8892   31.4504    4.8641 H     887  UNL887      0.1146
   3548 H          14.6511   29.8907    5.2637 H     887  UNL887      0.1146
   3549 N          14.1636   30.7608    7.6956 N.3   888  UNL888     -0.3437
   3550 H          13.7219   31.0514    8.5667 H     888  UNL888      0.1146
   3551 H          14.8892   31.4504    7.5049 H     888  UNL888      0.1146
   3552 H          14.6511   29.8907    7.9045 H     888  UNL888      0.1146
   3553 N          12.1636   30.7608   10.3364 N.3   889  UNL889     -0.3437
   3554 H          11.7219   31.0514   11.2075 H     889  UNL889      0.1146
   3555 H          12.8892   31.4504   10.1457 H     889  UNL889      0.1146
   3556 H          12.6511   29.8907   10.5453 H     889  UNL889      0.1146
   3557 N          14.1636   30.7608   12.9773 N.3   890  UNL890     -0.3437
   3558 H          13.7219   31.0514   13.8484 H     890  UNL890      0.1146
   3559 H          14.8892   31.4504   12.7866 H     890  UNL890      0.1146
   3560 H          14.6511   29.8907   13.1862 H     890  UNL890      0.1146
   3561 N          14.1636   30.7608   15.6181 N.3   891  UNL891     -0.3437
   3562 H          13.7219   31.0514   16.4892 H     891  UNL891      0.1146
   3563 H          14.8892   31.4504   15.4274 H     891  UNL891      0.1146
   3564 H          14.6511   29.8907   15.8270 H     891  UNL891      0.1146
   3565 N          14.1636   30.7608   18.2589 N.3   892  UNL892     -0.3437
   3566 H          13.7219   31.0514   19.1300 H     892  UNL892      0.1146
   3567 H          14.8892   31.4504   18.0682 H     892  UNL892      0.1146
   3568 H          14.6511   29.8907   18.4678 H     892  UNL892      0.1146
   3569 N          14.1636   30.7608   20.8997 N.3   893  UNL893     -0.3437
   3570 H          13.7219   31.0514   21.7708 H     893  UNL893      0.1146
   3571 H          14.8892   31.4504   20.7090 H     893  UNL893      0.1146
   3572 H          14.6511   29.8907   21.1086 H     893  UNL893      0.1146
   3573 N          14.1636   33.5806   -0.2269 N.3   894  UNL894     -0.3437
   3574 H          13.7219   33.8712    0.6442 H     894  UNL894      0.1146
   3575 H          14.8892   34.2702   -0.4176 H     894  UNL894      0.1146
   3576 H          14.6511   32.7105   -0.0180 H     894  UNL894      0.1146
   3577 N          14.1636   33.5806    2.4140 N.3   895  UNL895     -0.3437
   3578 H          13.7219   33.8712    3.2851 H     895  UNL895      0.1146
   3579 H          14.8892   34.2702    2.2233 H     895  UNL895      0.1146
   3580 H          14.6511   32.7105    2.6229 H     895  UNL895      0.1146
   3581 N          14.1636   33.5806    5.0548 N.3   896  UNL896     -0.3437
   3582 H          13.7219   33.8712    5.9259 H     896  UNL896      0.1146
   3583 H          14.8892   34.2702    4.8641 H     896  UNL896      0.1146
   3584 H          14.6511   32.7105    5.2637 H     896  UNL896      0.1146
   3585 N          14.1636   33.5806    7.6956 N.3   897  UNL897     -0.3437
   3586 H          13.7219   33.8712    8.5667 H     897  UNL897      0.1146
   3587 H          14.8892   34.2702    7.5049 H     897  UNL897      0.1146
   3588 H          14.6511   32.7105    7.9045 H     897  UNL897      0.1146
   3589 N          14.1636   33.5806   10.3364 N.3   898  UNL898     -0.3437
   3590 H          13.7219   33.8712   11.2075 H     898  UNL898      0.1146
   3591 H          14.8892   34.2702   10.1457 H     898  UNL898      0.1146
   3592 H          14.6511   32.7105   10.5453 H     898  UNL898      0.1146
   3593 N          14.1636   33.5806   12.9773 N.3   899  UNL899     -0.3437
   3594 H          13.7219   33.8712   13.8484 H     899  UNL899      0.1146
   3595 H          14.8892   34.2702   12.7866 H     899  UNL899      0.1146
   3596 H          14.6511   32.7105   13.1862 H     899  UNL899      0.1146
   3597 N          14.1636   33.5806   15.6181 N.3   900  UNL900     -0.3437
   3598 H          13.7219   33.8712   16.4892 H     900  UNL900      0.1146
   3599 H          14.8892   34.2702   15.4274 H     900  UNL900      0.1146
   3600 H          14.6511   32.7105   15.8270 H     900  UNL900      0.1146
   3601 N          14.1636   33.5806   18.2589 N.3   901  UNL901     -0.3437
   3602 H          13.7219   33.8712   19.1300 H     901  UNL901      0.1146
   3603 H          14.8892   34.2702   18.0682 H     901  UNL901      0.1146
   3604 H          14.6511   32.7105   18.4678 H     901  UNL901      0.1146
   3605 N          14.1636   33.5806   20.8997 N.3   902  UNL902     -0.3437
   3606 H          13.7219   33.8712   21.7708 H     902  UNL902      0.1146
   3607 H          14.8892   34.2702   20.7090 H     902  UNL902      0.1146
   3608 H          14.6511   32.7105   21.1086 H     902  UNL902      0.1146
   3609 N          14.1082   36.5865    0.6601 N.3   903  UNL903     -0.3437
   3610 H          14.5243   36.3679    1.5642 H     903  UNL903      0.1146
   3611 H          14.8322   37.0652    0.1260 H     903  UNL903      0.1146
   3612 H          13.9613   35.6919    0.1948 H     903  UNL903      0.1146
   3613 N          14.1082   36.5865    3.3009 N.3   904  UNL904     -0.3437
   3614 H          14.5243   36.3679    4.2050 H     904  UNL904      0.1146
   3615 H          14.8322   37.0652    2.7669 H     904  UNL904      0.1146
   3616 H          13.9613   35.6919    2.8357 H     904  UNL904      0.1146
   3617 N          14.0799   36.4174    7.8143 N.3   905  UNL905     -0.3437
   3618 H          14.2176   35.8238    8.6311 H     905  UNL905      0.1146
   3619 H          14.3590   37.3554    8.0985 H     905  UNL905      0.1146
   3620 H          14.7696   36.1150    7.1279 H     905  UNL905      0.1146
   3621 N          14.1636   36.4004   10.3364 N.3   906  UNL906     -0.3437
   3622 H          13.7219   36.6910   11.2075 H     906  UNL906      0.1146
   3623 H          14.8892   37.0900   10.1457 H     906  UNL906      0.1146
   3624 H          14.6511   35.5303   10.5453 H     906  UNL906      0.1146
   3625 N          14.1636   36.4004   12.9773 N.3   907  UNL907     -0.3437
   3626 H          13.7219   36.6910   13.8484 H     907  UNL907      0.1146
   3627 H          14.8892   37.0900   12.7866 H     907  UNL907      0.1146
   3628 H          14.6511   35.5303   13.1862 H     907  UNL907      0.1146
   3629 N          14.1636   36.4004   15.6181 N.3   908  UNL908     -0.3437
   3630 H          13.7219   36.6910   16.4892 H     908  UNL908      0.1146
   3631 H          14.8892   37.0900   15.4274 H     908  UNL908      0.1146
   3632 H          14.6511   35.5303   15.8270 H     908  UNL908      0.1146
   3633 N          14.1636   36.4004   18.2589 N.3   909  UNL909     -0.3437
   3634 H          13.7219   36.6910   19.1300 H     909  UNL909      0.1146
   3635 H          14.8892   37.0900   18.0682 H     909  UNL909      0.1146
   3636 H          14.6511   35.5303   18.4678 H     909  UNL909      0.1146
   3637 N          14.1636   36.4004   20.8997 N.3   910  UNL910     -0.3437
   3638 H          13.7219   36.6910   21.7708 H     910  UNL910      0.1146
   3639 H          14.8892   37.0900   20.7090 H     910  UNL910      0.1146
   3640 H          14.6511   35.5303   21.1086 H     910  UNL910      0.1146
   3641 N          14.1636   39.4423    0.1065 N.3   911  UNL911     -0.3437
   3642 H          13.7219   38.5705   -0.1820 H     911  UNL911      0.1146
   3643 H          14.8892   39.1824    0.7731 H     911  UNL911      0.1146
   3644 H          14.6511   39.7956   -0.7156 H     911  UNL911      0.1146
   3645 N          14.1636   39.4423    2.7473 N.3   912  UNL912     -0.3437
   3646 H          13.7219   38.5705    2.4588 H     912  UNL912      0.1146
   3647 H          14.8892   39.1824    3.4139 H     912  UNL912      0.1146
   3648 H          14.6511   39.7956    1.9252 H     912  UNL912      0.1146
   3649 N          14.1636   39.4423    5.3881 N.3   913  UNL913     -0.3437
   3650 H          13.7219   38.5705    5.0996 H     913  UNL913      0.1146
   3651 H          14.8892   39.1824    6.0547 H     913  UNL913      0.1146
   3652 H          14.6511   39.7956    4.5660 H     913  UNL913      0.1146
   3653 N          14.1636   39.4423    8.0289 N.3   914  UNL914     -0.3437
   3654 H          13.7219   38.5705    7.7404 H     914  UNL914      0.1146
   3655 H          14.8892   39.1824    8.6955 H     914  UNL914      0.1146
   3656 H          14.6511   39.7956    7.2068 H     914  UNL914      0.1146
   3657 N          14.1636   39.2202   10.3364 N.3   915  UNL915     -0.3437
   3658 H          13.7219   39.5108   11.2075 H     915  UNL915      0.1146
   3659 H          14.8892   39.9098   10.1457 H     915  UNL915      0.1146
   3660 H          14.6511   38.3501   10.5453 H     915  UNL915      0.1146
   3661 N          14.1636   39.2202   12.9773 N.3   916  UNL916     -0.3437
   3662 H          13.7219   39.5108   13.8484 H     916  UNL916      0.1146
   3663 H          14.8892   39.9098   12.7866 H     916  UNL916      0.1146
   3664 H          14.6511   38.3501   13.1862 H     916  UNL916      0.1146
   3665 N          14.1636   39.2202   15.6181 N.3   917  UNL917     -0.3437
   3666 H          13.7219   39.5108   16.4892 H     917  UNL917      0.1146
   3667 H          14.8892   39.9098   15.4274 H     917  UNL917      0.1146
   3668 H          14.6511   38.3501   15.8270 H     917  UNL917      0.1146
   3669 N          14.1636   39.2202   18.2589 N.3   918  UNL918     -0.3437
   3670 H          13.7219   39.5108   19.1300 H     918  UNL918      0.1146
   3671 H          14.8892   39.9098   18.0682 H     918  UNL918      0.1146
   3672 H          14.6511   38.3501   18.4678 H     918  UNL918      0.1146
   3673 N          14.1636   39.2202   20.8997 N.3   919  UNL919     -0.3437
   3674 H          13.7219   39.5108   21.7708 H     919  UNL919      0.1146
   3675 H          14.8892   39.9098   20.7090 H     919  UNL919      0.1146
   3676 H          14.6511   38.3501   21.1086 H     919  UNL919      0.1146
   3677 N          16.6953   -0.2567   -0.2269 N.3   920  UNL920     -0.3437
   3678 H          16.2536    0.0339    0.6442 H     920  UNL920      0.1146
   3679 H          17.4209    0.4329   -0.4176 H     920  UNL920      0.1146
   3680 H          17.1828   -1.1268   -0.0180 H     920  UNL920      0.1146
   3681 N          16.6953   -0.2567    2.4140 N.3   921  UNL921     -0.3437
   3682 H          16.2536    0.0339    3.2851 H     921  UNL921      0.1146
   3683 H          17.4209    0.4329    2.2233 H     921  UNL921      0.1146
   3684 H          17.1828   -1.1268    2.6229 H     921  UNL921      0.1146
   3685 N          16.6953   -0.2567    5.0548 N.3   922  UNL922     -0.3437
   3686 H          16.2536    0.0339    5.9259 H     922  UNL922      0.1146
   3687 H          17.4209    0.4329    4.8641 H     922  UNL922      0.1146
   3688 H          17.1828   -1.1268    5.2637 H     922  UNL922      0.1146
   3689 N          16.6953   -0.2567    7.6956 N.3   923  UNL923     -0.3437
   3690 H          16.2536    0.0339    8.5667 H     923  UNL923      0.1146
   3691 H          17.4209    0.4329    7.5049 H     923  UNL923      0.1146
   3692 H          17.1828   -1.1268    7.9045 H     923  UNL923      0.1146
   3693 N          16.6953   -0.2567   10.3364 N.3   924  UNL924     -0.3437
   3694 H          16.2536    0.0339   11.2075 H     924  UNL924      0.1146
   3695 H          17.4209    0.4329   10.1457 H     924  UNL924      0.1146
   3696 H          17.1828   -1.1268   10.5453 H     924  UNL924      0.1146
   3697 N          16.6953   -0.2567   12.9773 N.3   925  UNL925     -0.3437
   3698 H          16.2536    0.0339   13.8484 H     925  UNL925      0.1146
   3699 H          17.4209    0.4329   12.7866 H     925  UNL925      0.1146
   3700 H          17.1828   -1.1268   13.1862 H     925  UNL925      0.1146
   3701 N          16.6953   -0.2567   15.6181 N.3   926  UNL926     -0.3437
   3702 H          16.2536    0.0339   16.4892 H     926  UNL926      0.1146
   3703 H          17.4209    0.4329   15.4274 H     926  UNL926      0.1146
   3704 H          17.1828   -1.1268   15.8270 H     926  UNL926      0.1146
   3705 N          16.6953   -0.2567   18.2589 N.3   927  UNL927     -0.3437
   3706 H          16.2536    0.0339   19.1300 H     927  UNL927      0.1146
   3707 H          17.4209    0.4329   18.0682 H     927  UNL927      0.1146
   3708 H          17.1828   -1.1268   18.4678 H     927  UNL927      0.1146
   3709 N          16.6953   -0.2567   20.8997 N.3   928  UNL928     -0.3437
   3710 H          16.2536    0.0339   21.7708 H     928  UNL928      0.1146
   3711 H          17.4209    0.4329   20.7090 H     928  UNL928      0.1146
   3712 H          17.1828   -1.1268   21.1086 H     928  UNL928      0.1146
   3713 N          16.6953    2.5631   -0.2269 N.3   929  UNL929     -0.3437
   3714 H          16.2536    2.8537    0.6442 H     929  UNL929      0.1146
   3715 H          17.4209    3.2527   -0.4176 H     929  UNL929      0.1146
   3716 H          17.1828    1.6930   -0.0180 H     929  UNL929      0.1146
   3717 N          16.6953    2.5631    2.4140 N.3   930  UNL930     -0.3437
   3718 H          16.2536    2.8537    3.2851 H     930  UNL930      0.1146
   3719 H          17.4209    3.2527    2.2233 H     930  UNL930      0.1146
   3720 H          17.1828    1.6930    2.6229 H     930  UNL930      0.1146
   3721 N          16.6953    2.5631    5.0548 N.3   931  UNL931     -0.3437
   3722 H          16.2536    2.8537    5.9259 H     931  UNL931      0.1146
   3723 H          17.4209    3.2527    4.8641 H     931  UNL931      0.1146
   3724 H          17.1828    1.6930    5.2637 H     931  UNL931      0.1146
   3725 N          16.6953    2.5631    7.6956 N.3   932  UNL932     -0.3437
   3726 H          16.2536    2.8537    8.5667 H     932  UNL932      0.1146
   3727 H          17.4209    3.2527    7.5049 H     932  UNL932      0.1146
   3728 H          17.1828    1.6930    7.9045 H     932  UNL932      0.1146
   3729 N          16.6953    2.5631   10.3364 N.3   933  UNL933     -0.3437
   3730 H          16.2536    2.8537   11.2075 H     933  UNL933      0.1146
   3731 H          17.4209    3.2527   10.1457 H     933  UNL933      0.1146
   3732 H          17.1828    1.6930   10.5453 H     933  UNL933      0.1146
   3733 N          16.6953    2.5631   12.9773 N.3   934  UNL934     -0.3437
   3734 H          16.2536    2.8537   13.8484 H     934  UNL934      0.1146
   3735 H          17.4209    3.2527   12.7866 H     934  UNL934      0.1146
   3736 H          17.1828    1.6930   13.1862 H     934  UNL934      0.1146
   3737 N          16.6953    2.5631   15.6181 N.3   935  UNL935     -0.3437
   3738 H          16.2536    2.8537   16.4892 H     935  UNL935      0.1146
   3739 H          17.4209    3.2527   15.4274 H     935  UNL935      0.1146
   3740 H          17.1828    1.6930   15.8270 H     935  UNL935      0.1146
   3741 N          16.6953    2.5631   18.2589 N.3   936  UNL936     -0.3437
   3742 H          16.2536    2.8537   19.1300 H     936  UNL936      0.1146
   3743 H          17.4209    3.2527   18.0682 H     936  UNL936      0.1146
   3744 H          17.1828    1.6930   18.4678 H     936  UNL936      0.1146
   3745 N          16.6953    2.7852   21.2331 N.3   937  UNL937     -0.3437
   3746 H          16.2536    1.9134   20.9446 H     937  UNL937      0.1146
   3747 H          17.4209    2.5253   21.8997 H     937  UNL937      0.1146
   3748 H          17.1828    3.1385   20.4110 H     937  UNL937      0.1146
   3749 N          16.6953    5.6050    0.1065 N.3   938  UNL938     -0.3437
   3750 H          16.2536    4.7332   -0.1820 H     938  UNL938      0.1146
   3751 H          17.4209    5.3450    0.7731 H     938  UNL938      0.1146
   3752 H          17.1828    5.9583   -0.7156 H     938  UNL938      0.1146
   3753 N          16.6953    5.6050    2.7473 N.3   939  UNL939     -0.3437
   3754 H          16.2536    4.7332    2.4588 H     939  UNL939      0.1146
   3755 H          17.4209    5.3450    3.4139 H     939  UNL939      0.1146
   3756 H          17.1828    5.9583    1.9252 H     939  UNL939      0.1146
   3757 N          16.6953    5.6050    5.3881 N.3   940  UNL940     -0.3437
   3758 H          16.2536    4.7332    5.0996 H     940  UNL940      0.1146
   3759 H          17.4209    5.3450    6.0547 H     940  UNL940      0.1146
   3760 H          17.1828    5.9583    4.5660 H     940  UNL940      0.1146
   3761 N          16.6953    5.6050    8.0289 N.3   941  UNL941     -0.3437
   3762 H          16.2536    4.7332    7.7404 H     941  UNL941      0.1146
   3763 H          17.4209    5.3450    8.6955 H     941  UNL941      0.1146
   3764 H          17.1828    5.9583    7.2068 H     941  UNL941      0.1146
   3765 N          16.6589    5.2900   10.4163 N.3   942  UNL942     -0.3437
   3766 H          16.7866    4.9068   11.3518 H     942  UNL942      0.1146
   3767 H          16.5638    6.2975   10.5360 H     942  UNL942      0.1146
   3768 H          17.5435    5.1472    9.9310 H     942  UNL942      0.1146
   3769 N          16.6953    5.6050   13.3106 N.3   943  UNL943     -0.3437
   3770 H          16.2536    4.7332   13.0221 H     943  UNL943      0.1146
   3771 H          17.4209    5.3450   13.9772 H     943  UNL943      0.1146
   3772 H          17.1828    5.9583   12.4885 H     943  UNL943      0.1146
   3773 N          16.6953    5.6050   15.9514 N.3   944  UNL944     -0.3437
   3774 H          16.2536    4.7332   15.6629 H     944  UNL944      0.1146
   3775 H          17.4209    5.3450   16.6180 H     944  UNL944      0.1146
   3776 H          17.1828    5.9583   15.1293 H     944  UNL944      0.1146
   3777 N          16.6953    5.6050   18.5922 N.3   945  UNL945     -0.3437
   3778 H          16.2536    4.7332   18.3037 H     945  UNL945      0.1146
   3779 H          17.4209    5.3450   19.2588 H     945  UNL945      0.1146
   3780 H          17.1828    5.9583   17.7701 H     945  UNL945      0.1146
   3781 N          16.6953    5.3829   20.8997 N.3   946  UNL946     -0.3437
   3782 H          16.2536    5.6735   21.7708 H     946  UNL946      0.1146
   3783 H          17.4209    6.0725   20.7090 H     946  UNL946      0.1146
   3784 H          17.1828    4.5128   21.1086 H     946  UNL946      0.1146
   3785 N          16.6953    8.2026   -0.2269 N.3   947  UNL947     -0.3437
   3786 H          16.2536    8.4932    0.6442 H     947  UNL947      0.1146
   3787 H          17.4209    8.8922   -0.4176 H     947  UNL947      0.1146
   3788 H          17.1828    7.3325   -0.0180 H     947  UNL947      0.1146
   3789 N          16.6953    8.2026    2.4140 N.3   948  UNL948     -0.3437
   3790 H          16.2536    8.4932    3.2851 H     948  UNL948      0.1146
   3791 H          17.4209    8.8922    2.2233 H     948  UNL948      0.1146
   3792 H          17.1828    7.3325    2.6229 H     948  UNL948      0.1146
   3793 N          16.6953    8.2026    5.0548 N.3   949  UNL949     -0.3437
   3794 H          16.2536    8.4932    5.9259 H     949  UNL949      0.1146
   3795 H          17.4209    8.8922    4.8641 H     949  UNL949      0.1146
   3796 H          17.1828    7.3325    5.2637 H     949  UNL949      0.1146
   3797 N          16.6953    8.2026    7.6956 N.3   950  UNL950     -0.3437
   3798 H          16.2536    8.4932    8.5667 H     950  UNL950      0.1146
   3799 H          17.4209    8.8922    7.5049 H     950  UNL950      0.1146
   3800 H          17.1828    7.3325    7.9045 H     950  UNL950      0.1146
   3801 N          14.6953    8.2026   10.3364 N.3   951  UNL951     -0.3437
   3802 H          14.2536    8.4932   11.2075 H     951  UNL951      0.1146
   3803 H          15.4209    8.8922   10.1457 H     951  UNL951      0.1146
   3804 H          15.1828    7.3325   10.5453 H     951  UNL951      0.1146
   3805 N          16.8255    8.2026   13.4871 N.3   952  UNL952     -0.3437
   3806 H          17.7877    8.4932   13.3197 H     952  UNL952      0.1146
   3807 H          16.2385    8.8922   13.0199 H     952  UNL952      0.1146
   3808 H          16.7011    7.3325   12.9716 H     952  UNL952      0.1146
   3809 N          16.6953    8.2026   15.6181 N.3   953  UNL953     -0.3437
   3810 H          16.2536    8.4932   16.4892 H     953  UNL953      0.1146
   3811 H          17.4209    8.8922   15.4274 H     953  UNL953      0.1146
   3812 H          17.1828    7.3325   15.8270 H     953  UNL953      0.1146
   3813 N          16.6953    8.2026   18.2589 N.3   954  UNL954     -0.3437
   3814 H          16.2536    8.4932   19.1300 H     954  UNL954      0.1146
   3815 H          17.4209    8.8922   18.0682 H     954  UNL954      0.1146
   3816 H          17.1828    7.3325   18.4678 H     954  UNL954      0.1146
   3817 N          16.6953    8.2026   20.8997 N.3   955  UNL955     -0.3437
   3818 H          16.2536    8.4932   21.7708 H     955  UNL955      0.1146
   3819 H          17.4209    8.8922   20.7090 H     955  UNL955      0.1146
   3820 H          17.1828    7.3325   21.1086 H     955  UNL955      0.1146
   3821 N          16.6953   11.2445    0.1065 N.3   956  UNL956     -0.3437
   3822 H          16.2536   10.3727   -0.1820 H     956  UNL956      0.1146
   3823 H          17.4209   10.9846    0.7731 H     956  UNL956      0.1146
   3824 H          17.1828   11.5979   -0.7156 H     956  UNL956      0.1146
   3825 N          14.8255   11.0224    2.9238 N.3   957  UNL957     -0.3437
   3826 H          15.7877   11.3130    2.7564 H     957  UNL957      0.1146
   3827 H          14.2385   11.7120    2.4566 H     957  UNL957      0.1146
   3828 H          14.7011   10.1523    2.4083 H     957  UNL957      0.1146
   3829 N          16.6953   11.2445    5.3881 N.3   958  UNL958     -0.3437
   3830 H          16.2536   10.3727    5.0996 H     958  UNL958      0.1146
   3831 H          17.4209   10.9846    6.0547 H     958  UNL958      0.1146
   3832 H          17.1828   11.5979    4.5660 H     958  UNL958      0.1146
   3833 N          16.6953   11.2445    8.0289 N.3   959  UNL959     -0.3437
   3834 H          16.2536   10.3727    7.7404 H     959  UNL959      0.1146
   3835 H          17.4209   10.9846    8.6955 H     959  UNL959      0.1146
   3836 H          17.1828   11.5979    7.2068 H     959  UNL959      0.1146
   3837 N          16.6953   11.0224   10.3364 N.3   960  UNL960     -0.3437
   3838 H          16.2536   11.3130   11.2075 H     960  UNL960      0.1146
   3839 H          17.4209   11.7120   10.1457 H     960  UNL960      0.1146
   3840 H          17.1828   10.1523   10.5453 H     960  UNL960      0.1146
   3841 N          16.6953   11.0224   12.9773 N.3   961  UNL961     -0.3437
   3842 H          16.2536   11.3130   13.8484 H     961  UNL961      0.1146
   3843 H          17.4209   11.7120   12.7866 H     961  UNL961      0.1146
   3844 H          17.1828   10.1523   13.1862 H     961  UNL961      0.1146
   3845 N          16.9019   11.2378   15.6126 N.3   962  UNL962     -0.3437
   3846 H          16.2805   11.5607   16.3528 H     962  UNL962      0.1146
   3847 H          17.8081   11.0855   16.0532 H     962  UNL962      0.1146
   3848 H          16.5623   10.3157   15.3430 H     962  UNL962      0.1146
   3849 N          16.6953   11.2445   18.5922 N.3   963  UNL963     -0.3437
   3850 H          16.2536   10.3727   18.3037 H     963  UNL963      0.1146
   3851 H          17.4209   10.9846   19.2588 H     963  UNL963      0.1146
   3852 H          17.1828   11.5979   17.7701 H     963  UNL963      0.1146
   3853 N          16.6953   11.2445   21.2331 N.3   964  UNL964     -0.3437
   3854 H          16.2536   10.3727   20.9446 H     964  UNL964      0.1146
   3855 H          17.4209   10.9846   21.8997 H     964  UNL964      0.1146
   3856 H          17.1828   11.5979   20.4110 H     964  UNL964      0.1146
   3857 N          16.6953   14.0643    0.1065 N.3   965  UNL965     -0.3437
   3858 H          16.2536   13.1925   -0.1820 H     965  UNL965      0.1146
   3859 H          17.4209   13.8044    0.7731 H     965  UNL965      0.1146
   3860 H          17.1828   14.4176   -0.7156 H     965  UNL965      0.1146
   3861 N          16.6953   14.0643    2.7473 N.3   966  UNL966     -0.3437
   3862 H          16.2536   13.1925    2.4588 H     966  UNL966      0.1146
   3863 H          17.4209   13.8044    3.4139 H     966  UNL966      0.1146
   3864 H          17.1828   14.4176    1.9252 H     966  UNL966      0.1146
   3865 N          16.6953   14.0643    5.3881 N.3   967  UNL967     -0.3437
   3866 H          16.2536   13.1925    5.0996 H     967  UNL967      0.1146
   3867 H          17.4209   13.8044    6.0547 H     967  UNL967      0.1146
   3868 H          17.1828   14.4176    4.5660 H     967  UNL967      0.1146
   3869 N          16.6953   14.0643    8.0289 N.3   968  UNL968     -0.3437
   3870 H          16.2536   13.1925    7.7404 H     968  UNL968      0.1146
   3871 H          17.4209   13.8044    8.6955 H     968  UNL968      0.1146
   3872 H          17.1828   14.4176    7.2068 H     968  UNL968      0.1146
   3873 N          16.6953   13.8422   10.3364 N.3   969  UNL969     -0.3437
   3874 H          16.2536   14.1328   11.2075 H     969  UNL969      0.1146
   3875 H          17.4209   14.5318   10.1457 H     969  UNL969      0.1146
   3876 H          17.1828   12.9721   10.5453 H     969  UNL969      0.1146
   3877 N          14.6953   13.8422   12.9773 N.3   970  UNL970     -0.3437
   3878 H          14.2536   14.1328   13.8484 H     970  UNL970      0.1146
   3879 H          15.4209   14.5318   12.7866 H     970  UNL970      0.1146
   3880 H          15.1828   12.9721   13.1862 H     970  UNL970      0.1146
   3881 N          14.6953   13.8422   15.6181 N.3   971  UNL971     -0.3437
   3882 H          14.2536   14.1328   16.4892 H     971  UNL971      0.1146
   3883 H          15.4209   14.5318   15.4274 H     971  UNL971      0.1146
   3884 H          15.1828   12.9721   15.8270 H     971  UNL971      0.1146
   3885 N          16.6953   14.0643   18.5922 N.3   972  UNL972     -0.3437
   3886 H          16.2536   13.1925   18.3037 H     972  UNL972      0.1146
   3887 H          17.4209   13.8044   19.2588 H     972  UNL972      0.1146
   3888 H          17.1828   14.4176   17.7701 H     972  UNL972      0.1146
   3889 N          16.6953   14.0643   21.2331 N.3   973  UNL973     -0.3437
   3890 H          16.2536   13.1925   20.9446 H     973  UNL973      0.1146
   3891 H          17.4209   13.8044   21.8997 H     973  UNL973      0.1146
   3892 H          17.1828   14.4176   20.4110 H     973  UNL973      0.1146
   3893 N          16.6953   16.6619    0.4140 N.3   974  UNL974     -0.3437
   3894 H          16.2536   16.9525    1.2851 H     974  UNL974      0.1146
   3895 H          17.4209   17.3516    0.2233 H     974  UNL974      0.1146
   3896 H          17.1828   15.7919    0.6229 H     974  UNL974      0.1146
   3897 N          16.6953   16.6619    3.0548 N.3   975  UNL975     -0.3437
   3898 H          16.2536   16.9525    3.9259 H     975  UNL975      0.1146
   3899 H          17.4209   17.3516    2.8641 H     975  UNL975      0.1146
   3900 H          17.1828   15.7919    3.2637 H     975  UNL975      0.1146
   3901 N          16.6953   16.6619    5.6956 N.3   976  UNL976     -0.3437
   3902 H          16.2536   16.9525    6.5667 H     976  UNL976      0.1146
   3903 H          17.4209   17.3516    5.5049 H     976  UNL976      0.1146
   3904 H          17.1828   15.7919    5.9045 H     976  UNL976      0.1146
   3905 N          16.6953   16.6619   10.3364 N.3   977  UNL977     -0.3437
   3906 H          16.2536   16.9525   11.2075 H     977  UNL977      0.1146
   3907 H          17.4209   17.3516   10.1457 H     977  UNL977      0.1146
   3908 H          17.1828   15.7919   10.5453 H     977  UNL977      0.1146
   3909 N          16.6953   16.6619   12.9773 N.3   978  UNL978     -0.3437
   3910 H          16.2536   16.9525   13.8484 H     978  UNL978      0.1146
   3911 H          17.4209   17.3516   12.7866 H     978  UNL978      0.1146
   3912 H          17.1828   15.7919   13.1862 H     978  UNL978      0.1146
   3913 N          16.6953   16.6619   15.6181 N.3   979  UNL979     -0.3437
   3914 H          16.2536   16.9525   16.4892 H     979  UNL979      0.1146
   3915 H          17.4209   17.3516   15.4274 H     979  UNL979      0.1146
   3916 H          17.1828   15.7919   15.8270 H     979  UNL979      0.1146
   3917 N          16.6953   16.8841   18.5922 N.3   980  UNL980     -0.3437
   3918 H          16.2536   16.0123   18.3037 H     980  UNL980      0.1146
   3919 H          17.4209   16.6241   19.2588 H     980  UNL980      0.1146
   3920 H          17.1828   17.2374   17.7701 H     980  UNL980      0.1146
   3921 N          16.6953   16.8841   21.2331 N.3   981  UNL981     -0.3437
   3922 H          16.2536   16.0123   20.9446 H     981  UNL981      0.1146
   3923 H          17.4209   16.6241   21.8997 H     981  UNL981      0.1146
   3924 H          17.1828   17.2374   20.4110 H     981  UNL981      0.1146
   3925 N          16.6953   19.7038    0.1065 N.3   982  UNL982     -0.3437
   3926 H          16.2536   18.8320   -0.1820 H     982  UNL982      0.1146
   3927 H          17.4209   19.4439    0.7731 H     982  UNL982      0.1146
   3928 H          17.1828   20.0572   -0.7156 H     982  UNL982      0.1146
   3929 N          16.6953   19.7038    2.7473 N.3   983  UNL983     -0.3437
   3930 H          16.2536   18.8320    2.4588 H     983  UNL983      0.1146
   3931 H          17.4209   19.4439    3.4139 H     983  UNL983      0.1146
   3932 H          17.1828   20.0572    1.9252 H     983  UNL983      0.1146
   3933 N          16.6953   19.7038    5.3881 N.3   984  UNL984     -0.3437
   3934 H          16.2536   18.8320    5.0996 H     984  UNL984      0.1146
   3935 H          17.4209   19.4439    6.0547 H     984  UNL984      0.1146
   3936 H          17.1828   20.0572    4.5660 H     984  UNL984      0.1146
   3937 N          16.6953   19.7038    8.0289 N.3   985  UNL985     -0.3437
   3938 H          16.2536   18.8320    7.7404 H     985  UNL985      0.1146
   3939 H          17.4209   19.4439    8.6955 H     985  UNL985      0.1146
   3940 H          17.1828   20.0572    7.2068 H     985  UNL985      0.1146
   3941 N          16.6953   19.4817   10.3364 N.3   986  UNL986     -0.3437
   3942 H          16.2536   19.7723   11.2075 H     986  UNL986      0.1146
   3943 H          17.4209   20.1713   10.1457 H     986  UNL986      0.1146
   3944 H          17.1828   18.6116   10.5453 H     986  UNL986      0.1146
   3945 N          16.9019   19.6971   12.9718 N.3   987  UNL987     -0.3437
   3946 H          16.2805   20.0200   13.7120 H     987  UNL987      0.1146
   3947 H          17.8081   19.5448   13.4124 H     987  UNL987      0.1146
   3948 H          16.5623   18.7751   12.7021 H     987  UNL987      0.1146
   3949 N          16.6589   19.3889   15.6979 N.3   988  UNL988     -0.3437
   3950 H          16.7866   19.0057   16.6334 H     988  UNL988      0.1146
   3951 H          16.5638   20.3964   15.8176 H     988  UNL988      0.1146
   3952 H          17.5435   19.2460   15.2127 H     988  UNL988      0.1146
   3953 N          16.6953   19.7038   18.5922 N.3   989  UNL989     -0.3437
   3954 H          16.2536   18.8320   18.3037 H     989  UNL989      0.1146
   3955 H          17.4209   19.4439   19.2588 H     989  UNL989      0.1146
   3956 H          17.1828   20.0572   17.7701 H     989  UNL989      0.1146
   3957 N          16.6953   19.7038   21.2331 N.3   990  UNL990     -0.3437
   3958 H          16.2536   18.8320   20.9446 H     990  UNL990      0.1146
   3959 H          17.4209   19.4439   21.8997 H     990  UNL990      0.1146
   3960 H          17.1828   20.0572   20.4110 H     990  UNL990      0.1146
   3961 N          14.8255   22.3015    2.9238 N.3   991  UNL991     -0.3437
   3962 H          15.7877   22.5921    2.7564 H     991  UNL991      0.1146
   3963 H          14.2385   22.9911    2.4566 H     991  UNL991      0.1146
   3964 H          14.7011   21.4314    2.4083 H     991  UNL991      0.1146
   3965 N          16.6953   22.5236    5.3881 N.3   992  UNL992     -0.3437
   3966 H          16.2536   21.6518    5.0996 H     992  UNL992      0.1146
   3967 H          17.4209   22.2637    6.0547 H     992  UNL992      0.1146
   3968 H          17.1828   22.8770    4.5660 H     992  UNL992      0.1146
   3969 N          16.6953   22.5236    8.0289 N.3   993  UNL993     -0.3437
   3970 H          16.2536   21.6518    7.7404 H     993  UNL993      0.1146
   3971 H          17.4209   22.2637    8.6955 H     993  UNL993      0.1146
   3972 H          17.1828   22.8770    7.2068 H     993  UNL993      0.1146
   3973 N          16.6953   22.3015   10.3364 N.3   994  UNL994     -0.3437
   3974 H          16.2536   22.5921   11.2075 H     994  UNL994      0.1146
   3975 H          17.4209   22.9911   10.1457 H     994  UNL994      0.1146
   3976 H          17.1828   21.4314   10.5453 H     994  UNL994      0.1146
   3977 N          16.6953   22.3015   12.9773 N.3   995  UNL995     -0.3437
   3978 H          16.2536   22.5921   13.8484 H     995  UNL995      0.1146
   3979 H          17.4209   22.9911   12.7866 H     995  UNL995      0.1146
   3980 H          17.1828   21.4314   13.1862 H     995  UNL995      0.1146
   3981 N          16.6953   22.3015   15.6181 N.3   996  UNL996     -0.3437
   3982 H          16.2536   22.5921   16.4892 H     996  UNL996      0.1146
   3983 H          17.4209   22.9911   15.4274 H     996  UNL996      0.1146
   3984 H          17.1828   21.4314   15.8270 H     996  UNL996      0.1146
   3985 N          16.6953   22.5236   18.5922 N.3   997  UNL997     -0.3437
   3986 H          16.2536   21.6518   18.3037 H     997  UNL997      0.1146
   3987 H          17.4209   22.2637   19.2588 H     997  UNL997      0.1146
   3988 H          17.1828   22.8770   17.7701 H     997  UNL997      0.1146
   3989 N          14.9019   22.5169   20.8943 N.3   998  UNL998     -0.3437
   3990 H          14.2805   22.8398   21.6345 H     998  UNL998      0.1146
   3991 H          15.8081   22.3646   21.3348 H     998  UNL998      0.1146
   3992 H          14.5623   21.5948   20.6246 H     998  UNL998      0.1146
   3993 N          16.6953   25.3434    0.1065 N.3   999  UNL999     -0.3437
   3994 H          16.2536   24.4716   -0.1820 H     999  UNL999      0.1146
   3995 H          17.4209   25.0835    0.7731 H     999  UNL999      0.1146
   3996 H          17.1828   25.6967   -0.7156 H     999  UNL999      0.1146
   3997 N          16.6953   25.3434    2.7473 N.3   1000  UNL1000    -0.3437
   3998 H          16.2536   24.4716    2.4588 H     1000  UNL1000     0.1146
   3999 H          17.4209   25.0835    3.4139 H     1000  UNL1000     0.1146
   4000 H          17.1828   25.6967    1.9252 H     1000  UNL1000     0.1146
   4001 N          16.6953   25.3434    5.3881 N.3   1001  UNL1001    -0.3437
   4002 H          16.2536   24.4716    5.0996 H     1001  UNL1001     0.1146
   4003 H          17.4209   25.0835    6.0547 H     1001  UNL1001     0.1146
   4004 H          17.1828   25.6967    4.5660 H     1001  UNL1001     0.1146
   4005 N          16.6953   25.3434    8.0289 N.3   1002  UNL1002    -0.3437
   4006 H          16.2536   24.4716    7.7404 H     1002  UNL1002     0.1146
   4007 H          17.4209   25.0835    8.6955 H     1002  UNL1002     0.1146
   4008 H          17.1828   25.6967    7.2068 H     1002  UNL1002     0.1146
   4009 N          16.6589   25.0284   10.4163 N.3   1003  UNL1003    -0.3437
   4010 H          16.7866   24.6452   11.3518 H     1003  UNL1003     0.1146
   4011 H          16.5638   26.0359   10.5360 H     1003  UNL1003     0.1146
   4012 H          17.5435   24.8856    9.9310 H     1003  UNL1003     0.1146
   4013 N          16.6953   24.9872   13.3547 N.3   1004  UNL1004    -0.3437
   4014 H          16.2536   25.5111   12.6006 H     1004  UNL1004     0.1146
   4015 H          17.4209   24.4217   12.9163 H     1004  UNL1004     0.1146
   4016 H          17.1828   25.6752   13.9268 H     1004  UNL1004     0.1146
   4017 N          16.9019   25.3367   15.6126 N.3   1005  UNL1005    -0.3437
   4018 H          16.2805   25.6595   16.3528 H     1005  UNL1005     0.1146
   4019 H          17.8081   25.1843   16.0532 H     1005  UNL1005     0.1146
   4020 H          16.5623   24.4146   15.3430 H     1005  UNL1005     0.1146
   4021 N          16.6589   25.0284   18.3387 N.3   1006  UNL1006    -0.3437
   4022 H          16.7866   24.6452   19.2743 H     1006  UNL1006     0.1146
   4023 H          16.5638   26.0359   18.4585 H     1006  UNL1006     0.1146
   4024 H          17.5435   24.8856   17.8535 H     1006  UNL1006     0.1146
   4025 N          16.6953   25.3434   21.2331 N.3   1007  UNL1007    -0.3437
   4026 H          16.2536   24.4716   20.9446 H     1007  UNL1007     0.1146
   4027 H          17.4209   25.0835   21.8997 H     1007  UNL1007     0.1146
   4028 H          17.1828   25.6967   20.4110 H     1007  UNL1007     0.1146
   4029 N          16.6953   27.9410    0.4140 N.3   1008  UNL1008    -0.3437
   4030 H          16.2536   28.2316    1.2851 H     1008  UNL1008     0.1146
   4031 H          17.4209   28.6306    0.2233 H     1008  UNL1008     0.1146
   4032 H          17.1828   27.0709    0.6229 H     1008  UNL1008     0.1146
   4033 N          16.6953   27.9410    3.0548 N.3   1009  UNL1009    -0.3437
   4034 H          16.2536   28.2316    3.9259 H     1009  UNL1009     0.1146
   4035 H          17.4209   28.6306    2.8641 H     1009  UNL1009     0.1146
   4036 H          17.1828   27.0709    3.2637 H     1009  UNL1009     0.1146
   4037 N          16.6953   27.9410    5.6956 N.3   1010  UNL1010    -0.3437
   4038 H          16.2536   28.2316    6.5667 H     1010  UNL1010     0.1146
   4039 H          17.4209   28.6306    5.5049 H     1010  UNL1010     0.1146
   4040 H          17.1828   27.0709    5.9045 H     1010  UNL1010     0.1146
   4041 N          16.6953   27.9410    8.3364 N.3   1011  UNL1011    -0.3437
   4042 H          16.2536   28.2316    9.2075 H     1011  UNL1011     0.1146
   4043 H          17.4209   28.6306    8.1457 H     1011  UNL1011     0.1146
   4044 H          17.1828   27.0709    8.5453 H     1011  UNL1011     0.1146
   4045 N          16.6399   28.1272   11.2234 N.3   1012  UNL1012    -0.3437
   4046 H          17.0560   27.9086   12.1275 H     1012  UNL1012     0.1146
   4047 H          17.3639   28.6059   10.6893 H     1012  UNL1012     0.1146
   4048 H          16.4930   27.2326   10.7581 H     1012  UNL1012     0.1146
   4049 N          16.6399   28.1272   13.8642 N.3   1013  UNL1013    -0.3437
   4050 H          17.0560   27.9086   14.7683 H     1013  UNL1013     0.1146
   4051 H          17.3639   28.6059   13.3302 H     1013  UNL1013     0.1146
   4052 H          16.4930   27.2326   13.3990 H     1013  UNL1013     0.1146
   4053 N          16.6953   27.9410   16.2589 N.3   1014  UNL1014    -0.3437
   4054 H          16.2536   28.2316   17.1300 H     1014  UNL1014     0.1146
   4055 H          17.4209   28.6306   16.0682 H     1014  UNL1014     0.1146
   4056 H          17.1828   27.0709   16.4678 H     1014  UNL1014     0.1146
   4057 N          16.6953   27.9410   18.8997 N.3   1015  UNL1015    -0.3437
   4058 H          16.2536   28.2316   19.7708 H     1015  UNL1015     0.1146
   4059 H          17.4209   28.6306   18.7090 H     1015  UNL1015     0.1146
   4060 H          17.1828   27.0709   19.1086 H     1015  UNL1015     0.1146
   4061 N          16.6953   27.9410   21.5406 N.3   1016  UNL1016    -0.3437
   4062 H          16.2536   28.2316   22.4117 H     1016  UNL1016     0.1146
   4063 H          17.4209   28.6306   21.3499 H     1016  UNL1016     0.1146
   4064 H          17.1828   27.0709   21.7495 H     1016  UNL1016     0.1146
   4065 N          16.6953   30.7608   -0.2269 N.3   1017  UNL1017    -0.3437
   4066 H          16.2536   31.0514    0.6442 H     1017  UNL1017     0.1146
   4067 H          17.4209   31.4504   -0.4176 H     1017  UNL1017     0.1146
   4068 H          17.1828   29.8907   -0.0180 H     1017  UNL1017     0.1146
   4069 N          16.6953   30.7608    2.4140 N.3   1018  UNL1018    -0.3437
   4070 H          16.2536   31.0514    3.2851 H     1018  UNL1018     0.1146
   4071 H          17.4209   31.4504    2.2233 H     1018  UNL1018     0.1146
   4072 H          17.1828   29.8907    2.6229 H     1018  UNL1018     0.1146
   4073 N          16.6953   30.7608    5.0548 N.3   1019  UNL1019    -0.3437
   4074 H          16.2536   31.0514    5.9259 H     1019  UNL1019     0.1146
   4075 H          17.4209   31.4504    4.8641 H     1019  UNL1019     0.1146
   4076 H          17.1828   29.8907    5.2637 H     1019  UNL1019     0.1146
   4077 N          16.6953   30.7608    7.6956 N.3   1020  UNL1020    -0.3437
   4078 H          16.2536   31.0514    8.5667 H     1020  UNL1020     0.1146
   4079 H          17.4209   31.4504    7.5049 H     1020  UNL1020     0.1146
   4080 H          17.1828   29.8907    7.9045 H     1020  UNL1020     0.1146
   4081 N          14.6953   30.7608   10.3364 N.3   1021  UNL1021    -0.3437
   4082 H          14.2536   31.0514   11.2075 H     1021  UNL1021     0.1146
   4083 H          15.4209   31.4504   10.1457 H     1021  UNL1021     0.1146
   4084 H          15.1828   29.8907   10.5453 H     1021  UNL1021     0.1146
   4085 N          16.6953   30.7608   12.9773 N.3   1022  UNL1022    -0.3437
   4086 H          16.2536   31.0514   13.8484 H     1022  UNL1022     0.1146
   4087 H          17.4209   31.4504   12.7866 H     1022  UNL1022     0.1146
   4088 H          17.1828   29.8907   13.1862 H     1022  UNL1022     0.1146
   4089 N          16.6953   30.7608   15.6181 N.3   1023  UNL1023    -0.3437
   4090 H          16.2536   31.0514   16.4892 H     1023  UNL1023     0.1146
   4091 H          17.4209   31.4504   15.4274 H     1023  UNL1023     0.1146
   4092 H          17.1828   29.8907   15.8270 H     1023  UNL1023     0.1146
   4093 N          16.6953   30.7608   18.2589 N.3   1024  UNL1024    -0.3437
   4094 H          16.2536   31.0514   19.1300 H     1024  UNL1024     0.1146
   4095 H          17.4209   31.4504   18.0682 H     1024  UNL1024     0.1146
   4096 H          17.1828   29.8907   18.4678 H     1024  UNL1024     0.1146
   4097 N          16.6953   30.7608   20.8997 N.3   1025  UNL1025    -0.3437
   4098 H          16.2536   31.0514   21.7708 H     1025  UNL1025     0.1146
   4099 H          17.4209   31.4504   20.7090 H     1025  UNL1025     0.1146
   4100 H          17.1828   29.8907   21.1086 H     1025  UNL1025     0.1146
   4101 N          16.6953   33.5806   -0.2269 N.3   1026  UNL1026    -0.3437
   4102 H          16.2536   33.8712    0.6442 H     1026  UNL1026     0.1146
   4103 H          17.4209   34.2702   -0.4176 H     1026  UNL1026     0.1146
   4104 H          17.1828   32.7105   -0.0180 H     1026  UNL1026     0.1146
   4105 N          16.6953   33.5806    2.4140 N.3   1027  UNL1027    -0.3437
   4106 H          16.2536   33.8712    3.2851 H     1027  UNL1027     0.1146
   4107 H          17.4209   34.2702    2.2233 H     1027  UNL1027     0.1146
   4108 H          17.1828   32.7105    2.6229 H     1027  UNL1027     0.1146
   4109 N          16.6953   33.5806    5.0548 N.3   1028  UNL1028    -0.3437
   4110 H          16.2536   33.8712    5.9259 H     1028  UNL1028     0.1146
   4111 H          17.4209   34.2702    4.8641 H     1028  UNL1028     0.1146
   4112 H          17.1828   32.7105    5.2637 H     1028  UNL1028     0.1146
   4113 N          16.6953   33.5806    7.6956 N.3   1029  UNL1029    -0.3437
   4114 H          16.2536   33.8712    8.5667 H     1029  UNL1029     0.1146
   4115 H          17.4209   34.2702    7.5049 H     1029  UNL1029     0.1146
   4116 H          17.1828   32.7105    7.9045 H     1029  UNL1029     0.1146
   4117 N          16.6953   33.5806   10.3364 N.3   1030  UNL1030    -0.3437
   4118 H          16.2536   33.8712   11.2075 H     1030  UNL1030     0.1146
   4119 H          17.4209   34.2702   10.1457 H     1030  UNL1030     0.1146
   4120 H          17.1828   32.7105   10.5453 H     1030  UNL1030     0.1146
   4121 N          16.6953   33.5806   12.9773 N.3   1031  UNL1031    -0.3437
   4122 H          16.2536   33.8712   13.8484 H     1031  UNL1031     0.1146
   4123 H          17.4209   34.2702   12.7866 H     1031  UNL1031     0.1146
   4124 H          17.1828   32.7105   13.1862 H     1031  UNL1031     0.1146
   4125 N          16.6953   33.5806   15.6181 N.3   1032  UNL1032    -0.3437
   4126 H          16.2536   33.8712   16.4892 H     1032  UNL1032     0.1146
   4127 H          17.4209   34.2702   15.4274 H     1032  UNL1032     0.1146
   4128 H          17.1828   32.7105   15.8270 H     1032  UNL1032     0.1146
   4129 N          16.6953   33.5806   18.2589 N.3   1033  UNL1033    -0.3437
   4130 H          16.2536   33.8712   19.1300 H     1033  UNL1033     0.1146
   4131 H          17.4209   34.2702   18.0682 H     1033  UNL1033     0.1146
   4132 H          17.1828   32.7105   18.4678 H     1033  UNL1033     0.1146
   4133 N          16.6953   33.5806   20.8997 N.3   1034  UNL1034    -0.3437
   4134 H          16.2536   33.8712   21.7708 H     1034  UNL1034     0.1146
   4135 H          17.4209   34.2702   20.7090 H     1034  UNL1034     0.1146
   4136 H          17.1828   32.7105   21.1086 H     1034  UNL1034     0.1146
   4137 N          16.9019   36.6158   -0.2323 N.3   1035  UNL1035    -0.3437
   4138 H          16.2805   36.9386    0.5079 H     1035  UNL1035     0.1146
   4139 H          17.8081   36.4635    0.2082 H     1035  UNL1035     0.1146
   4140 H          16.5623   35.6937   -0.5020 H     1035  UNL1035     0.1146
   4141 N          16.9019   36.6158    2.4085 N.3   1036  UNL1036    -0.3437
   4142 H          16.2805   36.9386    3.1487 H     1036  UNL1036     0.1146
   4143 H          17.8081   36.4635    2.8491 H     1036  UNL1036     0.1146
   4144 H          16.5623   35.6937    2.1388 H     1036  UNL1036     0.1146
   4145 N          16.9019   36.6158    5.0493 N.3   1037  UNL1037    -0.3437
   4146 H          16.2805   36.9386    5.7895 H     1037  UNL1037     0.1146
   4147 H          17.8081   36.4635    5.4899 H     1037  UNL1037     0.1146
   4148 H          16.5623   35.6937    4.7797 H     1037  UNL1037     0.1146
   4149 N          16.9019   36.6158    7.6902 N.3   1038  UNL1038    -0.3437
   4150 H          16.2805   36.9386    8.4304 H     1038  UNL1038     0.1146
   4151 H          17.8081   36.4635    8.1307 H     1038  UNL1038     0.1146
   4152 H          16.5623   35.6937    7.4205 H     1038  UNL1038     0.1146
   4153 N          16.6953   36.4004   10.3364 N.3   1039  UNL1039    -0.3437
   4154 H          16.2536   36.6910   11.2075 H     1039  UNL1039     0.1146
   4155 H          17.4209   37.0900   10.1457 H     1039  UNL1039     0.1146
   4156 H          17.1828   35.5303   10.5453 H     1039  UNL1039     0.1146
   4157 N          16.6953   36.4004   12.9773 N.3   1040  UNL1040    -0.3437
   4158 H          16.2536   36.6910   13.8484 H     1040  UNL1040     0.1146
   4159 H          17.4209   37.0900   12.7866 H     1040  UNL1040     0.1146
   4160 H          17.1828   35.5303   13.1862 H     1040  UNL1040     0.1146
   4161 N          16.6953   36.4004   15.6181 N.3   1041  UNL1041    -0.3437
   4162 H          16.2536   36.6910   16.4892 H     1041  UNL1041     0.1146
   4163 H          17.4209   37.0900   15.4274 H     1041  UNL1041     0.1146
   4164 H          17.1828   35.5303   15.8270 H     1041  UNL1041     0.1146
   4165 N          16.6953   36.4004   18.2589 N.3   1042  UNL1042    -0.3437
   4166 H          16.2536   36.6910   19.1300 H     1042  UNL1042     0.1146
   4167 H          17.4209   37.0900   18.0682 H     1042  UNL1042     0.1146
   4168 H          17.1828   35.5303   18.4678 H     1042  UNL1042     0.1146
   4169 N          16.6953   36.4004   20.8997 N.3   1043  UNL1043    -0.3437
   4170 H          16.2536   36.6910   21.7708 H     1043  UNL1043     0.1146
   4171 H          17.4209   37.0900   20.7090 H     1043  UNL1043     0.1146
   4172 H          17.1828   35.5303   21.1086 H     1043  UNL1043     0.1146
   4173 N          16.6953   39.4423    0.1065 N.3   1044  UNL1044    -0.3437
   4174 H          16.2536   38.5705   -0.1820 H     1044  UNL1044     0.1146
   4175 H          17.4209   39.1824    0.7731 H     1044  UNL1044     0.1146
   4176 H          17.1828   39.7956   -0.7156 H     1044  UNL1044     0.1146
   4177 N          16.6953   39.4423    2.7473 N.3   1045  UNL1045    -0.3437
   4178 H          16.2536   38.5705    2.4588 H     1045  UNL1045     0.1146
   4179 H          17.4209   39.1824    3.4139 H     1045  UNL1045     0.1146
   4180 H          17.1828   39.7956    1.9252 H     1045  UNL1045     0.1146
   4181 N          16.6953   39.4423    5.3881 N.3   1046  UNL1046    -0.3437
   4182 H          16.2536   38.5705    5.0996 H     1046  UNL1046     0.1146
   4183 H          17.4209   39.1824    6.0547 H     1046  UNL1046     0.1146
   4184 H          17.1828   39.7956    4.5660 H     1046  UNL1046     0.1146
   4185 N          16.6953   39.4423    8.0289 N.3   1047  UNL1047    -0.3437
   4186 H          16.2536   38.5705    7.7404 H     1047  UNL1047     0.1146
   4187 H          17.4209   39.1824    8.6955 H     1047  UNL1047     0.1146
   4188 H          17.1828   39.7956    7.2068 H     1047  UNL1047     0.1146
   4189 N          16.6953   39.2202   10.3364 N.3   1048  UNL1048    -0.3437
   4190 H          16.2536   39.5108   11.2075 H     1048  UNL1048     0.1146
   4191 H          17.4209   39.9098   10.1457 H     1048  UNL1048     0.1146
   4192 H          17.1828   38.3501   10.5453 H     1048  UNL1048     0.1146
   4193 N          16.6953   39.2202   12.9773 N.3   1049  UNL1049    -0.3437
   4194 H          16.2536   39.5108   13.8484 H     1049  UNL1049     0.1146
   4195 H          17.4209   39.9098   12.7866 H     1049  UNL1049     0.1146
   4196 H          17.1828   38.3501   13.1862 H     1049  UNL1049     0.1146
   4197 N          16.6953   39.2202   15.6181 N.3   1050  UNL1050    -0.3437
   4198 H          16.2536   39.5108   16.4892 H     1050  UNL1050     0.1146
   4199 H          17.4209   39.9098   15.4274 H     1050  UNL1050     0.1146
   4200 H          17.1828   38.3501   15.8270 H     1050  UNL1050     0.1146
   4201 N          16.6953   39.2202   18.2589 N.3   1051  UNL1051    -0.3437
   4202 H          16.2536   39.5108   19.1300 H     1051  UNL1051     0.1146
   4203 H          17.4209   39.9098   18.0682 H     1051  UNL1051     0.1146
   4204 H          17.1828   38.3501   18.4678 H     1051  UNL1051     0.1146
   4205 N          16.6953   39.2202   20.8997 N.3   1052  UNL1052    -0.3437
   4206 H          16.2536   39.5108   21.7708 H     1052  UNL1052     0.1146
   4207 H          17.4209   39.9098   20.7090 H     1052  UNL1052     0.1146
   4208 H          17.1828   38.3501   21.1086 H     1052  UNL1052     0.1146
   4209 N          19.2270   -0.2567   -0.2269 N.3   1053  UNL1053    -0.3437
   4210 H          18.7853    0.0339    0.6442 H     1053  UNL1053     0.1146
   4211 H          19.9526    0.4329   -0.4176 H     1053  UNL1053     0.1146
   4212 H          19.7145   -1.1268   -0.0180 H     1053  UNL1053     0.1146
   4213 N          19.2270   -0.2567    2.4140 N.3   1054  UNL1054    -0.3437
   4214 H          18.7853    0.0339    3.2851 H     1054  UNL1054     0.1146
   4215 H          19.9526    0.4329    2.2233 H     1054  UNL1054     0.1146
   4216 H          19.7145   -1.1268    2.6229 H     1054  UNL1054     0.1146
   4217 N          19.2270   -0.2567    5.0548 N.3   1055  UNL1055    -0.3437
   4218 H          18.7853    0.0339    5.9259 H     1055  UNL1055     0.1146
   4219 H          19.9526    0.4329    4.8641 H     1055  UNL1055     0.1146
   4220 H          19.7145   -1.1268    5.2637 H     1055  UNL1055     0.1146
   4221 N          19.2270   -0.2567    7.6956 N.3   1056  UNL1056    -0.3437
   4222 H          18.7853    0.0339    8.5667 H     1056  UNL1056     0.1146
   4223 H          19.9526    0.4329    7.5049 H     1056  UNL1056     0.1146
   4224 H          19.7145   -1.1268    7.9045 H     1056  UNL1056     0.1146
   4225 N          19.2270   -0.2567   10.3364 N.3   1057  UNL1057    -0.3437
   4226 H          18.7853    0.0339   11.2075 H     1057  UNL1057     0.1146
   4227 H          19.9526    0.4329   10.1457 H     1057  UNL1057     0.1146
   4228 H          19.7145   -1.1268   10.5453 H     1057  UNL1057     0.1146
   4229 N          19.2270   -0.2567   12.9773 N.3   1058  UNL1058    -0.3437
   4230 H          18.7853    0.0339   13.8484 H     1058  UNL1058     0.1146
   4231 H          19.9526    0.4329   12.7866 H     1058  UNL1058     0.1146
   4232 H          19.7145   -1.1268   13.1862 H     1058  UNL1058     0.1146
   4233 N          19.2270   -0.2567   15.6181 N.3   1059  UNL1059    -0.3437
   4234 H          18.7853    0.0339   16.4892 H     1059  UNL1059     0.1146
   4235 H          19.9526    0.4329   15.4274 H     1059  UNL1059     0.1146
   4236 H          19.7145   -1.1268   15.8270 H     1059  UNL1059     0.1146
   4237 N          19.2270   -0.2567   18.2589 N.3   1060  UNL1060    -0.3437
   4238 H          18.7853    0.0339   19.1300 H     1060  UNL1060     0.1146
   4239 H          19.9526    0.4329   18.0682 H     1060  UNL1060     0.1146
   4240 H          19.7145   -1.1268   18.4678 H     1060  UNL1060     0.1146
   4241 N          19.2270   -0.2567   20.8997 N.3   1061  UNL1061    -0.3437
   4242 H          18.7853    0.0339   21.7708 H     1061  UNL1061     0.1146
   4243 H          19.9526    0.4329   20.7090 H     1061  UNL1061     0.1146
   4244 H          19.7145   -1.1268   21.1086 H     1061  UNL1061     0.1146
   4245 N          19.2270    2.5631   -0.2269 N.3   1062  UNL1062    -0.3437
   4246 H          18.7853    2.8537    0.6442 H     1062  UNL1062     0.1146
   4247 H          19.9526    3.2527   -0.4176 H     1062  UNL1062     0.1146
   4248 H          19.7145    1.6930   -0.0180 H     1062  UNL1062     0.1146
   4249 N          19.2270    2.5631    2.4140 N.3   1063  UNL1063    -0.3437
   4250 H          18.7853    2.8537    3.2851 H     1063  UNL1063     0.1146
   4251 H          19.9526    3.2527    2.2233 H     1063  UNL1063     0.1146
   4252 H          19.7145    1.6930    2.6229 H     1063  UNL1063     0.1146
   4253 N          19.2270    2.5631    5.0548 N.3   1064  UNL1064    -0.3437
   4254 H          18.7853    2.8537    5.9259 H     1064  UNL1064     0.1146
   4255 H          19.9526    3.2527    4.8641 H     1064  UNL1064     0.1146
   4256 H          19.7145    1.6930    5.2637 H     1064  UNL1064     0.1146
   4257 N          19.2270    2.5631    7.6956 N.3   1065  UNL1065    -0.3437
   4258 H          18.7853    2.8537    8.5667 H     1065  UNL1065     0.1146
   4259 H          19.9526    3.2527    7.5049 H     1065  UNL1065     0.1146
   4260 H          19.7145    1.6930    7.9045 H     1065  UNL1065     0.1146
   4261 N          19.2270    2.5631   10.3364 N.3   1066  UNL1066    -0.3437
   4262 H          18.7853    2.8537   11.2075 H     1066  UNL1066     0.1146
   4263 H          19.9526    3.2527   10.1457 H     1066  UNL1066     0.1146
   4264 H          19.7145    1.6930   10.5453 H     1066  UNL1066     0.1146
   4265 N          19.2270    2.5631   12.9773 N.3   1067  UNL1067    -0.3437
   4266 H          18.7853    2.8537   13.8484 H     1067  UNL1067     0.1146
   4267 H          19.9526    3.2527   12.7866 H     1067  UNL1067     0.1146
   4268 H          19.7145    1.6930   13.1862 H     1067  UNL1067     0.1146
   4269 N          19.2270    2.5631   15.6181 N.3   1068  UNL1068    -0.3437
   4270 H          18.7853    2.8537   16.4892 H     1068  UNL1068     0.1146
   4271 H          19.9526    3.2527   15.4274 H     1068  UNL1068     0.1146
   4272 H          19.7145    1.6930   15.8270 H     1068  UNL1068     0.1146
   4273 N          19.2270    2.5631   18.2589 N.3   1069  UNL1069    -0.3437
   4274 H          18.7853    2.8537   19.1300 H     1069  UNL1069     0.1146
   4275 H          19.9526    3.2527   18.0682 H     1069  UNL1069     0.1146
   4276 H          19.7145    1.6930   18.4678 H     1069  UNL1069     0.1146
   4277 N          19.2270    2.7852   21.2331 N.3   1070  UNL1070    -0.3437
   4278 H          18.7853    1.9134   20.9446 H     1070  UNL1070     0.1146
   4279 H          19.9526    2.5253   21.8997 H     1070  UNL1070     0.1146
   4280 H          19.7145    3.1385   20.4110 H     1070  UNL1070     0.1146
   4281 N          19.2270    5.6050    0.1065 N.3   1071  UNL1071    -0.3437
   4282 H          18.7853    4.7332   -0.1820 H     1071  UNL1071     0.1146
   4283 H          19.9526    5.3450    0.7731 H     1071  UNL1071     0.1146
   4284 H          19.7145    5.9583   -0.7156 H     1071  UNL1071     0.1146
   4285 N          19.2270    5.6050    2.7473 N.3   1072  UNL1072    -0.3437
   4286 H          18.7853    4.7332    2.4588 H     1072  UNL1072     0.1146
   4287 H          19.9526    5.3450    3.4139 H     1072  UNL1072     0.1146
   4288 H          19.7145    5.9583    1.9252 H     1072  UNL1072     0.1146
   4289 N          19.2270    5.6050    5.3881 N.3   1073  UNL1073    -0.3437
   4290 H          18.7853    4.7332    5.0996 H     1073  UNL1073     0.1146
   4291 H          19.9526    5.3450    6.0547 H     1073  UNL1073     0.1146
   4292 H          19.7145    5.9583    4.5660 H     1073  UNL1073     0.1146
   4293 N          19.2270    5.6050    8.0289 N.3   1074  UNL1074    -0.3437
   4294 H          18.7853    4.7332    7.7404 H     1074  UNL1074     0.1146
   4295 H          19.9526    5.3450    8.6955 H     1074  UNL1074     0.1146
   4296 H          19.7145    5.9583    7.2068 H     1074  UNL1074     0.1146
   4297 N          19.2270    5.3829   10.3364 N.3   1075  UNL1075    -0.3437
   4298 H          18.7853    5.6735   11.2075 H     1075  UNL1075     0.1146
   4299 H          19.9526    6.0725   10.1457 H     1075  UNL1075     0.1146
   4300 H          19.7145    4.5128   10.5453 H     1075  UNL1075     0.1146
   4301 N          19.1906    5.2900   13.0571 N.3   1076  UNL1076    -0.3437
   4302 H          19.3183    4.9068   13.9926 H     1076  UNL1076     0.1146
   4303 H          19.0955    6.2975   13.1768 H     1076  UNL1076     0.1146
   4304 H          20.0752    5.1472   12.5718 H     1076  UNL1076     0.1146
   4305 N          19.2270    5.6050   15.9514 N.3   1077  UNL1077    -0.3437
   4306 H          18.7853    4.7332   15.6629 H     1077  UNL1077     0.1146
   4307 H          19.9526    5.3450   16.6180 H     1077  UNL1077     0.1146
   4308 H          19.7145    5.9583   15.1293 H     1077  UNL1077     0.1146
   4309 N          19.2270    5.6050   18.5922 N.3   1078  UNL1078    -0.3437
   4310 H          18.7853    4.7332   18.3037 H     1078  UNL1078     0.1146
   4311 H          19.9526    5.3450   19.2588 H     1078  UNL1078     0.1146
   4312 H          19.7145    5.9583   17.7701 H     1078  UNL1078     0.1146
   4313 N          19.2270    5.3829   20.8997 N.3   1079  UNL1079    -0.3437
   4314 H          18.7853    5.6735   21.7708 H     1079  UNL1079     0.1146
   4315 H          19.9526    6.0725   20.7090 H     1079  UNL1079     0.1146
   4316 H          19.7145    4.5128   21.1086 H     1079  UNL1079     0.1146
   4317 N          19.2270    8.2026   -0.2269 N.3   1080  UNL1080    -0.3437
   4318 H          18.7853    8.4932    0.6442 H     1080  UNL1080     0.1146
   4319 H          19.9526    8.8922   -0.4176 H     1080  UNL1080     0.1146
   4320 H          19.7145    7.3325   -0.0180 H     1080  UNL1080     0.1146
   4321 N          19.2270    8.2026    2.4140 N.3   1081  UNL1081    -0.3437
   4322 H          18.7853    8.4932    3.2851 H     1081  UNL1081     0.1146
   4323 H          19.9526    8.8922    2.2233 H     1081  UNL1081     0.1146
   4324 H          19.7145    7.3325    2.6229 H     1081  UNL1081     0.1146
   4325 N          19.2270    8.2026    5.0548 N.3   1082  UNL1082    -0.3437
   4326 H          18.7853    8.4932    5.9259 H     1082  UNL1082     0.1146
   4327 H          19.9526    8.8922    4.8641 H     1082  UNL1082     0.1146
   4328 H          19.7145    7.3325    5.2637 H     1082  UNL1082     0.1146
   4329 N          19.2270    8.2026    7.6956 N.3   1083  UNL1083    -0.3437
   4330 H          18.7853    8.4932    8.5667 H     1083  UNL1083     0.1146
   4331 H          19.9526    8.8922    7.5049 H     1083  UNL1083     0.1146
   4332 H          19.7145    7.3325    7.9045 H     1083  UNL1083     0.1146
   4333 N          17.2270    8.2026   10.3364 N.3   1084  UNL1084    -0.3437
   4334 H          16.7853    8.4932   11.2075 H     1084  UNL1084     0.1146
   4335 H          17.9526    8.8922   10.1457 H     1084  UNL1084     0.1146
   4336 H          17.7145    7.3325   10.5453 H     1084  UNL1084     0.1146
   4337 N          19.3572    8.2026   13.4871 N.3   1085  UNL1085    -0.3437
   4338 H          20.3194    8.4932   13.3197 H     1085  UNL1085     0.1146
   4339 H          18.7702    8.8922   13.0199 H     1085  UNL1085     0.1146
   4340 H          19.2328    7.3325   12.9716 H     1085  UNL1085     0.1146
   4341 N          19.2270    8.2026   15.6181 N.3   1086  UNL1086    -0.3437
   4342 H          18.7853    8.4932   16.4892 H     1086  UNL1086     0.1146
   4343 H          19.9526    8.8922   15.4274 H     1086  UNL1086     0.1146
   4344 H          19.7145    7.3325   15.8270 H     1086  UNL1086     0.1146
   4345 N          19.2270    8.2026   18.2589 N.3   1087  UNL1087    -0.3437
   4346 H          18.7853    8.4932   19.1300 H     1087  UNL1087     0.1146
   4347 H          19.9526    8.8922   18.0682 H     1087  UNL1087     0.1146
   4348 H          19.7145    7.3325   18.4678 H     1087  UNL1087     0.1146
   4349 N          19.2270    8.2026   20.8997 N.3   1088  UNL1088    -0.3437
   4350 H          18.7853    8.4932   21.7708 H     1088  UNL1088     0.1146
   4351 H          19.9526    8.8922   20.7090 H     1088  UNL1088     0.1146
   4352 H          19.7145    7.3325   21.1086 H     1088  UNL1088     0.1146
   4353 N          19.2270   11.2445    0.1065 N.3   1089  UNL1089    -0.3437
   4354 H          18.7853   10.3727   -0.1820 H     1089  UNL1089     0.1146
   4355 H          19.9526   10.9846    0.7731 H     1089  UNL1089     0.1146
   4356 H          19.7145   11.5979   -0.7156 H     1089  UNL1089     0.1146
   4357 N          17.3572   11.0224    2.9238 N.3   1090  UNL1090    -0.3437
   4358 H          18.3194   11.3130    2.7564 H     1090  UNL1090     0.1146
   4359 H          16.7702   11.7120    2.4566 H     1090  UNL1090     0.1146
   4360 H          17.2328   10.1523    2.4083 H     1090  UNL1090     0.1146
   4361 N          19.2270   11.2445    5.3881 N.3   1091  UNL1091    -0.3437
   4362 H          18.7853   10.3727    5.0996 H     1091  UNL1091     0.1146
   4363 H          19.9526   10.9846    6.0547 H     1091  UNL1091     0.1146
   4364 H          19.7145   11.5979    4.5660 H     1091  UNL1091     0.1146
   4365 N          19.2270   11.2445    8.0289 N.3   1092  UNL1092    -0.3437
   4366 H          18.7853   10.3727    7.7404 H     1092  UNL1092     0.1146
   4367 H          19.9526   10.9846    8.6955 H     1092  UNL1092     0.1146
   4368 H          19.7145   11.5979    7.2068 H     1092  UNL1092     0.1146
   4369 N          19.2270   11.0224   10.3364 N.3   1093  UNL1093    -0.3437
   4370 H          18.7853   11.3130   11.2075 H     1093  UNL1093     0.1146
   4371 H          19.9526   11.7120   10.1457 H     1093  UNL1093     0.1146
   4372 H          19.7145   10.1523   10.5453 H     1093  UNL1093     0.1146
   4373 N          19.2270   11.0224   12.9773 N.3   1094  UNL1094    -0.3437
   4374 H          18.7853   11.3130   13.8484 H     1094  UNL1094     0.1146
   4375 H          19.9526   11.7120   12.7866 H     1094  UNL1094     0.1146
   4376 H          19.7145   10.1523   13.1862 H     1094  UNL1094     0.1146
   4377 N          19.2270   10.8883   15.9955 N.3   1095  UNL1095    -0.3437
   4378 H          18.7853   11.4123   15.2414 H     1095  UNL1095     0.1146
   4379 H          19.9526   10.3228   15.5572 H     1095  UNL1095     0.1146
   4380 H          19.7145   11.5764   16.5676 H     1095  UNL1095     0.1146
   4381 N          19.2270   11.2445   18.5922 N.3   1096  UNL1096    -0.3437
   4382 H          18.7853   10.3727   18.3037 H     1096  UNL1096     0.1146
   4383 H          19.9526   10.9846   19.2588 H     1096  UNL1096     0.1146
   4384 H          19.7145   11.5979   17.7701 H     1096  UNL1096     0.1146
   4385 N          19.2270   11.2445   21.2331 N.3   1097  UNL1097    -0.3437
   4386 H          18.7853   10.3727   20.9446 H     1097  UNL1097     0.1146
   4387 H          19.9526   10.9846   21.8997 H     1097  UNL1097     0.1146
   4388 H          19.7145   11.5979   20.4110 H     1097  UNL1097     0.1146
   4389 N          19.2270   14.0643    0.1065 N.3   1098  UNL1098    -0.3437
   4390 H          18.7853   13.1925   -0.1820 H     1098  UNL1098     0.1146
   4391 H          19.9526   13.8044    0.7731 H     1098  UNL1098     0.1146
   4392 H          19.7145   14.4176   -0.7156 H     1098  UNL1098     0.1146
   4393 N          19.2270   14.0643    2.7473 N.3   1099  UNL1099    -0.3437
   4394 H          18.7853   13.1925    2.4588 H     1099  UNL1099     0.1146
   4395 H          19.9526   13.8044    3.4139 H     1099  UNL1099     0.1146
   4396 H          19.7145   14.4176    1.9252 H     1099  UNL1099     0.1146
   4397 N          19.2270   14.0643    5.3881 N.3   1100  UNL1100    -0.3437
   4398 H          18.7853   13.1925    5.0996 H     1100  UNL1100     0.1146
   4399 H          19.9526   13.8044    6.0547 H     1100  UNL1100     0.1146
   4400 H          19.7145   14.4176    4.5660 H     1100  UNL1100     0.1146
   4401 N          19.2270   14.0643    8.0289 N.3   1101  UNL1101    -0.3437
   4402 H          18.7853   13.1925    7.7404 H     1101  UNL1101     0.1146
   4403 H          19.9526   13.8044    8.6955 H     1101  UNL1101     0.1146
   4404 H          19.7145   14.4176    7.2068 H     1101  UNL1101     0.1146
   4405 N          19.2270   13.8422   10.3364 N.3   1102  UNL1102    -0.3437
   4406 H          18.7853   14.1328   11.2075 H     1102  UNL1102     0.1146
   4407 H          19.9526   14.5318   10.1457 H     1102  UNL1102     0.1146
   4408 H          19.7145   12.9721   10.5453 H     1102  UNL1102     0.1146
   4409 N          17.2270   13.8422   12.9773 N.3   1103  UNL1103    -0.3437
   4410 H          16.7853   14.1328   13.8484 H     1103  UNL1103     0.1146
   4411 H          17.9526   14.5318   12.7866 H     1103  UNL1103     0.1146
   4412 H          17.7145   12.9721   13.1862 H     1103  UNL1103     0.1146
   4413 N          17.2270   13.8422   15.6181 N.3   1104  UNL1104    -0.3437
   4414 H          16.7853   14.1328   16.4892 H     1104  UNL1104     0.1146
   4415 H          17.9526   14.5318   15.4274 H     1104  UNL1104     0.1146
   4416 H          17.7145   12.9721   15.8270 H     1104  UNL1104     0.1146
   4417 N          19.2270   14.0643   18.5922 N.3   1105  UNL1105    -0.3437
   4418 H          18.7853   13.1925   18.3037 H     1105  UNL1105     0.1146
   4419 H          19.9526   13.8044   19.2588 H     1105  UNL1105     0.1146
   4420 H          19.7145   14.4176   17.7701 H     1105  UNL1105     0.1146
   4421 N          19.2270   14.0643   21.2331 N.3   1106  UNL1106    -0.3437
   4422 H          18.7853   13.1925   20.9446 H     1106  UNL1106     0.1146
   4423 H          19.9526   13.8044   21.8997 H     1106  UNL1106     0.1146
   4424 H          19.7145   14.4176   20.4110 H     1106  UNL1106     0.1146
   4425 N          19.2270   16.6619    0.4140 N.3   1107  UNL1107    -0.3437
   4426 H          18.7853   16.9525    1.2851 H     1107  UNL1107     0.1146
   4427 H          19.9526   17.3516    0.2233 H     1107  UNL1107     0.1146
   4428 H          19.7145   15.7919    0.6229 H     1107  UNL1107     0.1146
   4429 N          19.2270   16.6619    3.0548 N.3   1108  UNL1108    -0.3437
   4430 H          18.7853   16.9525    3.9259 H     1108  UNL1108     0.1146
   4431 H          19.9526   17.3516    2.8641 H     1108  UNL1108     0.1146
   4432 H          19.7145   15.7919    3.2637 H     1108  UNL1108     0.1146
   4433 N          19.2270   16.6619    5.6956 N.3   1109  UNL1109    -0.3437
   4434 H          18.7853   16.9525    6.5667 H     1109  UNL1109     0.1146
   4435 H          19.9526   17.3516    5.5049 H     1109  UNL1109     0.1146
   4436 H          19.7145   15.7919    5.9045 H     1109  UNL1109     0.1146
   4437 N          19.2270   16.6619   10.3364 N.3   1110  UNL1110    -0.3437
   4438 H          18.7853   16.9525   11.2075 H     1110  UNL1110     0.1146
   4439 H          19.9526   17.3516   10.1457 H     1110  UNL1110     0.1146
   4440 H          19.7145   15.7919   10.5453 H     1110  UNL1110     0.1146
   4441 N          19.2270   16.6619   12.9773 N.3   1111  UNL1111    -0.3437
   4442 H          18.7853   16.9525   13.8484 H     1111  UNL1111     0.1146
   4443 H          19.9526   17.3516   12.7866 H     1111  UNL1111     0.1146
   4444 H          19.7145   15.7919   13.1862 H     1111  UNL1111     0.1146
   4445 N          19.2270   16.6619   15.6181 N.3   1112  UNL1112    -0.3437
   4446 H          18.7853   16.9525   16.4892 H     1112  UNL1112     0.1146
   4447 H          19.9526   17.3516   15.4274 H     1112  UNL1112     0.1146
   4448 H          19.7145   15.7919   15.8270 H     1112  UNL1112     0.1146
   4449 N          19.2270   16.8841   18.5922 N.3   1113  UNL1113    -0.3437
   4450 H          18.7853   16.0123   18.3037 H     1113  UNL1113     0.1146
   4451 H          19.9526   16.6241   19.2588 H     1113  UNL1113     0.1146
   4452 H          19.7145   17.2374   17.7701 H     1113  UNL1113     0.1146
   4453 N          19.2270   16.8841   21.2331 N.3   1114  UNL1114    -0.3437
   4454 H          18.7853   16.0123   20.9446 H     1114  UNL1114     0.1146
   4455 H          19.9526   16.6241   21.8997 H     1114  UNL1114     0.1146
   4456 H          19.7145   17.2374   20.4110 H     1114  UNL1114     0.1146
   4457 N          19.2270   19.7038    0.1065 N.3   1115  UNL1115    -0.3437
   4458 H          18.7853   18.8320   -0.1820 H     1115  UNL1115     0.1146
   4459 H          19.9526   19.4439    0.7731 H     1115  UNL1115     0.1146
   4460 H          19.7145   20.0572   -0.7156 H     1115  UNL1115     0.1146
   4461 N          19.2270   19.7038    2.7473 N.3   1116  UNL1116    -0.3437
   4462 H          18.7853   18.8320    2.4588 H     1116  UNL1116     0.1146
   4463 H          19.9526   19.4439    3.4139 H     1116  UNL1116     0.1146
   4464 H          19.7145   20.0572    1.9252 H     1116  UNL1116     0.1146
   4465 N          19.2270   19.7038    5.3881 N.3   1117  UNL1117    -0.3437
   4466 H          18.7853   18.8320    5.0996 H     1117  UNL1117     0.1146
   4467 H          19.9526   19.4439    6.0547 H     1117  UNL1117     0.1146
   4468 H          19.7145   20.0572    4.5660 H     1117  UNL1117     0.1146
   4469 N          19.2270   19.7038    8.0289 N.3   1118  UNL1118    -0.3437
   4470 H          18.7853   18.8320    7.7404 H     1118  UNL1118     0.1146
   4471 H          19.9526   19.4439    8.6955 H     1118  UNL1118     0.1146
   4472 H          19.7145   20.0572    7.2068 H     1118  UNL1118     0.1146
   4473 N          19.2270   19.4817   10.3364 N.3   1119  UNL1119    -0.3437
   4474 H          18.7853   19.7723   11.2075 H     1119  UNL1119     0.1146
   4475 H          19.9526   20.1713   10.1457 H     1119  UNL1119     0.1146
   4476 H          19.7145   18.6116   10.5453 H     1119  UNL1119     0.1146
   4477 N          19.2270   19.3476   13.3547 N.3   1120  UNL1120    -0.3437
   4478 H          18.7853   19.8716   12.6006 H     1120  UNL1120     0.1146
   4479 H          19.9526   18.7821   12.9163 H     1120  UNL1120     0.1146
   4480 H          19.7145   20.0357   13.9268 H     1120  UNL1120     0.1146
   4481 N          19.3572   19.4817   16.1280 N.3   1121  UNL1121    -0.3437
   4482 H          20.3194   19.7723   15.9605 H     1121  UNL1121     0.1146
   4483 H          18.7702   20.1713   15.6608 H     1121  UNL1121     0.1146
   4484 H          19.2328   18.6116   15.6124 H     1121  UNL1121     0.1146
   4485 N          19.2270   19.7038   18.5922 N.3   1122  UNL1122    -0.3437
   4486 H          18.7853   18.8320   18.3037 H     1122  UNL1122     0.1146
   4487 H          19.9526   19.4439   19.2588 H     1122  UNL1122     0.1146
   4488 H          19.7145   20.0572   17.7701 H     1122  UNL1122     0.1146
   4489 N          19.2270   19.7038   21.2331 N.3   1123  UNL1123    -0.3437
   4490 H          18.7853   18.8320   20.9446 H     1123  UNL1123     0.1146
   4491 H          19.9526   19.4439   21.8997 H     1123  UNL1123     0.1146
   4492 H          19.7145   20.0572   20.4110 H     1123  UNL1123     0.1146
   4493 N          17.4336   22.5169    2.4085 N.3   1124  UNL1124    -0.3437
   4494 H          16.8122   22.8398    3.1487 H     1124  UNL1124     0.1146
   4495 H          18.3398   22.3646    2.8491 H     1124  UNL1124     0.1146
   4496 H          17.0940   21.5948    2.1388 H     1124  UNL1124     0.1146
   4497 N          19.2270   22.5236    5.3881 N.3   1125  UNL1125    -0.3437
   4498 H          18.7853   21.6518    5.0996 H     1125  UNL1125     0.1146
   4499 H          19.9526   22.2637    6.0547 H     1125  UNL1125     0.1146
   4500 H          19.7145   22.8770    4.5660 H     1125  UNL1125     0.1146
   4501 N          19.2270   22.5236    8.0289 N.3   1126  UNL1126    -0.3437
   4502 H          18.7853   21.6518    7.7404 H     1126  UNL1126     0.1146
   4503 H          19.9526   22.2637    8.6955 H     1126  UNL1126     0.1146
   4504 H          19.7145   22.8770    7.2068 H     1126  UNL1126     0.1146
   4505 N          19.2270   22.3015   10.3364 N.3   1127  UNL1127    -0.3437
   4506 H          18.7853   22.5921   11.2075 H     1127  UNL1127     0.1146
   4507 H          19.9526   22.9911   10.1457 H     1127  UNL1127     0.1146
   4508 H          19.7145   21.4314   10.5453 H     1127  UNL1127     0.1146
   4509 N          19.2270   22.3015   12.9773 N.3   1128  UNL1128    -0.3437
   4510 H          18.7853   22.5921   13.8484 H     1128  UNL1128     0.1146
   4511 H          19.9526   22.9911   12.7866 H     1128  UNL1128     0.1146
   4512 H          19.7145   21.4314   13.1862 H     1128  UNL1128     0.1146
   4513 N          19.2270   22.3015   15.6181 N.3   1129  UNL1129    -0.3437
   4514 H          18.7853   22.5921   16.4892 H     1129  UNL1129     0.1146
   4515 H          19.9526   22.9911   15.4274 H     1129  UNL1129     0.1146
   4516 H          19.7145   21.4314   15.8270 H     1129  UNL1129     0.1146
   4517 N          19.2270   22.5236   18.5922 N.3   1130  UNL1130    -0.3437
   4518 H          18.7853   21.6518   18.3037 H     1130  UNL1130     0.1146
   4519 H          19.9526   22.2637   19.2588 H     1130  UNL1130     0.1146
   4520 H          19.7145   22.8770   17.7701 H     1130  UNL1130     0.1146
   4521 N          17.3572   22.3015   21.4096 N.3   1131  UNL1131    -0.3437
   4522 H          18.3194   22.5921   21.2422 H     1131  UNL1131     0.1146
   4523 H          16.7702   22.9911   20.9424 H     1131  UNL1131     0.1146
   4524 H          17.2328   21.4314   20.8940 H     1131  UNL1131     0.1146
   4525 N          19.2270   25.3434    0.1065 N.3   1132  UNL1132    -0.3437
   4526 H          18.7853   24.4716   -0.1820 H     1132  UNL1132     0.1146
   4527 H          19.9526   25.0835    0.7731 H     1132  UNL1132     0.1146
   4528 H          19.7145   25.6967   -0.7156 H     1132  UNL1132     0.1146
   4529 N          19.2270   25.3434    2.7473 N.3   1133  UNL1133    -0.3437
   4530 H          18.7853   24.4716    2.4588 H     1133  UNL1133     0.1146
   4531 H          19.9526   25.0835    3.4139 H     1133  UNL1133     0.1146
   4532 H          19.7145   25.6967    1.9252 H     1133  UNL1133     0.1146
   4533 N          19.2270   25.3434    5.3881 N.3   1134  UNL1134    -0.3437
   4534 H          18.7853   24.4716    5.0996 H     1134  UNL1134     0.1146
   4535 H          19.9526   25.0835    6.0547 H     1134  UNL1134     0.1146
   4536 H          19.7145   25.6967    4.5660 H     1134  UNL1134     0.1146
   4537 N          19.2270   25.3434    8.0289 N.3   1135  UNL1135    -0.3437
   4538 H          18.7853   24.4716    7.7404 H     1135  UNL1135     0.1146
   4539 H          19.9526   25.0835    8.6955 H     1135  UNL1135     0.1146
   4540 H          19.7145   25.6967    7.2068 H     1135  UNL1135     0.1146
   4541 N          19.2270   25.1213   10.3364 N.3   1136  UNL1136    -0.3437
   4542 H          18.7853   25.4119   11.2075 H     1136  UNL1136     0.1146
   4543 H          19.9526   25.8109   10.1457 H     1136  UNL1136     0.1146
   4544 H          19.7145   24.2512   10.5453 H     1136  UNL1136     0.1146
   4545 N          19.4642   24.9301   13.0057 N.3   1137  UNL1137    -0.3437
   4546 H          18.5198   24.9321   13.3882 H     1137  UNL1137     0.1146
   4547 H          19.6039   25.8533   12.5974 H     1137  UNL1137     0.1146
   4548 H          20.0917   24.8797   13.8070 H     1137  UNL1137     0.1146
   4549 N          19.2270   24.9872   15.9955 N.3   1138  UNL1138    -0.3437
   4550 H          18.7853   25.5111   15.2414 H     1138  UNL1138     0.1146
   4551 H          19.9526   24.4217   15.5572 H     1138  UNL1138     0.1146
   4552 H          19.7145   25.6752   16.5676 H     1138  UNL1138     0.1146
   4553 N          19.2270   25.1213   18.2589 N.3   1139  UNL1139    -0.3437
   4554 H          18.7853   25.4119   19.1300 H     1139  UNL1139     0.1146
   4555 H          19.9526   25.8109   18.0682 H     1139  UNL1139     0.1146
   4556 H          19.7145   24.2512   18.4678 H     1139  UNL1139     0.1146
   4557 N          19.2270   25.3434   21.2331 N.3   1140  UNL1140    -0.3437
   4558 H          18.7853   24.4716   20.9446 H     1140  UNL1140     0.1146
   4559 H          19.9526   25.0835   21.8997 H     1140  UNL1140     0.1146
   4560 H          19.7145   25.6967   20.4110 H     1140  UNL1140     0.1146
   4561 N          19.2270   28.1632    0.1065 N.3   1141  UNL1141    -0.3437
   4562 H          18.7853   27.2914   -0.1820 H     1141  UNL1141     0.1146
   4563 H          19.9526   27.9032    0.7731 H     1141  UNL1141     0.1146
   4564 H          19.7145   28.5165   -0.7156 H     1141  UNL1141     0.1146
   4565 N          19.2270   28.1632    2.7473 N.3   1142  UNL1142    -0.3437
   4566 H          18.7853   27.2914    2.4588 H     1142  UNL1142     0.1146
   4567 H          19.9526   27.9032    3.4139 H     1142  UNL1142     0.1146
   4568 H          19.7145   28.5165    1.9252 H     1142  UNL1142     0.1146
   4569 N          19.2270   28.1632    5.3881 N.3   1143  UNL1143    -0.3437
   4570 H          18.7853   27.2914    5.0996 H     1143  UNL1143     0.1146
   4571 H          19.9526   27.9032    6.0547 H     1143  UNL1143     0.1146
   4572 H          19.7145   28.5165    4.5660 H     1143  UNL1143     0.1146
   4573 N          19.2270   28.1632    8.0289 N.3   1144  UNL1144    -0.3437
   4574 H          18.7853   27.2914    7.7404 H     1144  UNL1144     0.1146
   4575 H          19.9526   27.9032    8.6955 H     1144  UNL1144     0.1146
   4576 H          19.7145   28.5165    7.2068 H     1144  UNL1144     0.1146
   4577 N          19.1906   27.8482   10.4163 N.3   1145  UNL1145    -0.3437
   4578 H          19.3183   27.4650   11.3518 H     1145  UNL1145     0.1146
   4579 H          19.0955   28.8557   10.5360 H     1145  UNL1145     0.1146
   4580 H          20.0752   27.7054    9.9310 H     1145  UNL1145     0.1146
   4581 N          19.2270   28.1632   13.3106 N.3   1146  UNL1146    -0.3437
   4582 H          18.7853   27.2914   13.0221 H     1146  UNL1146     0.1146
   4583 H          19.9526   27.9032   13.9772 H     1146  UNL1146     0.1146
   4584 H          19.7145   28.5165   12.4885 H     1146  UNL1146     0.1146
   4585 N          19.2270   28.1632   15.9514 N.3   1147  UNL1147    -0.3437
   4586 H          18.7853   27.2914   15.6629 H     1147  UNL1147     0.1146
   4587 H          19.9526   27.9032   16.6180 H     1147  UNL1147     0.1146
   4588 H          19.7145   28.5165   15.1293 H     1147  UNL1147     0.1146
   4589 N          19.2270   28.1632   18.5922 N.3   1148  UNL1148    -0.3437
   4590 H          18.7853   27.2914   18.3037 H     1148  UNL1148     0.1146
   4591 H          19.9526   27.9032   19.2588 H     1148  UNL1148     0.1146
   4592 H          19.7145   28.5165   17.7701 H     1148  UNL1148     0.1146
   4593 N          19.2270   28.1632   21.2331 N.3   1149  UNL1149    -0.3437
   4594 H          18.7853   27.2914   20.9446 H     1149  UNL1149     0.1146
   4595 H          19.9526   27.9032   21.8997 H     1149  UNL1149     0.1146
   4596 H          19.7145   28.5165   20.4110 H     1149  UNL1149     0.1146
   4597 N          19.2270   30.7608   -0.2269 N.3   1150  UNL1150    -0.3437
   4598 H          18.7853   31.0514    0.6442 H     1150  UNL1150     0.1146
   4599 H          19.9526   31.4504   -0.4176 H     1150  UNL1150     0.1146
   4600 H          19.7145   29.8907   -0.0180 H     1150  UNL1150     0.1146
   4601 N          19.2270   30.7608    2.4140 N.3   1151  UNL1151    -0.3437
   4602 H          18.7853   31.0514    3.2851 H     1151  UNL1151     0.1146
   4603 H          19.9526   31.4504    2.2233 H     1151  UNL1151     0.1146
   4604 H          19.7145   29.8907    2.6229 H     1151  UNL1151     0.1146
   4605 N          19.2270   30.7608    5.0548 N.3   1152  UNL1152    -0.3437
   4606 H          18.7853   31.0514    5.9259 H     1152  UNL1152     0.1146
   4607 H          19.9526   31.4504    4.8641 H     1152  UNL1152     0.1146
   4608 H          19.7145   29.8907    5.2637 H     1152  UNL1152     0.1146
   4609 N          19.2270   30.7608    7.6956 N.3   1153  UNL1153    -0.3437
   4610 H          18.7853   31.0514    8.5667 H     1153  UNL1153     0.1146
   4611 H          19.9526   31.4504    7.5049 H     1153  UNL1153     0.1146
   4612 H          19.7145   29.8907    7.9045 H     1153  UNL1153     0.1146
   4613 N          17.2270   30.7608   10.3364 N.3   1154  UNL1154    -0.3437
   4614 H          16.7853   31.0514   11.2075 H     1154  UNL1154     0.1146
   4615 H          17.9526   31.4504   10.1457 H     1154  UNL1154     0.1146
   4616 H          17.7145   29.8907   10.5453 H     1154  UNL1154     0.1146
   4617 N          19.2270   30.7608   12.9773 N.3   1155  UNL1155    -0.3437
   4618 H          18.7853   31.0514   13.8484 H     1155  UNL1155     0.1146
   4619 H          19.9526   31.4504   12.7866 H     1155  UNL1155     0.1146
   4620 H          19.7145   29.8907   13.1862 H     1155  UNL1155     0.1146
   4621 N          19.2270   30.7608   15.6181 N.3   1156  UNL1156    -0.3437
   4622 H          18.7853   31.0514   16.4892 H     1156  UNL1156     0.1146
   4623 H          19.9526   31.4504   15.4274 H     1156  UNL1156     0.1146
   4624 H          19.7145   29.8907   15.8270 H     1156  UNL1156     0.1146
   4625 N          19.2270   30.7608   18.2589 N.3   1157  UNL1157    -0.3437
   4626 H          18.7853   31.0514   19.1300 H     1157  UNL1157     0.1146
   4627 H          19.9526   31.4504   18.0682 H     1157  UNL1157     0.1146
   4628 H          19.7145   29.8907   18.4678 H     1157  UNL1157     0.1146
   4629 N          19.2270   30.7608   20.8997 N.3   1158  UNL1158    -0.3437
   4630 H          18.7853   31.0514   21.7708 H     1158  UNL1158     0.1146
   4631 H          19.9526   31.4504   20.7090 H     1158  UNL1158     0.1146
   4632 H          19.7145   29.8907   21.1086 H     1158  UNL1158     0.1146
   4633 N          19.2270   33.5806   -0.2269 N.3   1159  UNL1159    -0.3437
   4634 H          18.7853   33.8712    0.6442 H     1159  UNL1159     0.1146
   4635 H          19.9526   34.2702   -0.4176 H     1159  UNL1159     0.1146
   4636 H          19.7145   32.7105   -0.0180 H     1159  UNL1159     0.1146
   4637 N          19.2270   33.5806    2.4140 N.3   1160  UNL1160    -0.3437
   4638 H          18.7853   33.8712    3.2851 H     1160  UNL1160     0.1146
   4639 H          19.9526   34.2702    2.2233 H     1160  UNL1160     0.1146
   4640 H          19.7145   32.7105    2.6229 H     1160  UNL1160     0.1146
   4641 N          19.2270   33.5806    5.0548 N.3   1161  UNL1161    -0.3437
   4642 H          18.7853   33.8712    5.9259 H     1161  UNL1161     0.1146
   4643 H          19.9526   34.2702    4.8641 H     1161  UNL1161     0.1146
   4644 H          19.7145   32.7105    5.2637 H     1161  UNL1161     0.1146
   4645 N          19.2270   33.5806    7.6956 N.3   1162  UNL1162    -0.3437
   4646 H          18.7853   33.8712    8.5667 H     1162  UNL1162     0.1146
   4647 H          19.9526   34.2702    7.5049 H     1162  UNL1162     0.1146
   4648 H          19.7145   32.7105    7.9045 H     1162  UNL1162     0.1146
   4649 N          19.2270   33.5806   10.3364 N.3   1163  UNL1163    -0.3437
   4650 H          18.7853   33.8712   11.2075 H     1163  UNL1163     0.1146
   4651 H          19.9526   34.2702   10.1457 H     1163  UNL1163     0.1146
   4652 H          19.7145   32.7105   10.5453 H     1163  UNL1163     0.1146
   4653 N          19.2270   33.5806   12.9773 N.3   1164  UNL1164    -0.3437
   4654 H          18.7853   33.8712   13.8484 H     1164  UNL1164     0.1146
   4655 H          19.9526   34.2702   12.7866 H     1164  UNL1164     0.1146
   4656 H          19.7145   32.7105   13.1862 H     1164  UNL1164     0.1146
   4657 N          19.2270   33.5806   15.6181 N.3   1165  UNL1165    -0.3437
   4658 H          18.7853   33.8712   16.4892 H     1165  UNL1165     0.1146
   4659 H          19.9526   34.2702   15.4274 H     1165  UNL1165     0.1146
   4660 H          19.7145   32.7105   15.8270 H     1165  UNL1165     0.1146
   4661 N          19.2270   33.5806   18.2589 N.3   1166  UNL1166    -0.3437
   4662 H          18.7853   33.8712   19.1300 H     1166  UNL1166     0.1146
   4663 H          19.9526   34.2702   18.0682 H     1166  UNL1166     0.1146
   4664 H          19.7145   32.7105   18.4678 H     1166  UNL1166     0.1146
   4665 N          19.2270   33.5806   20.8997 N.3   1167  UNL1167    -0.3437
   4666 H          18.7853   33.8712   21.7708 H     1167  UNL1167     0.1146
   4667 H          19.9526   34.2702   20.7090 H     1167  UNL1167     0.1146
   4668 H          19.7145   32.7105   21.1086 H     1167  UNL1167     0.1146
   4669 N          19.3572   36.4004    0.2830 N.3   1168  UNL1168    -0.3437
   4670 H          20.3194   36.6910    0.1156 H     1168  UNL1168     0.1146
   4671 H          18.7702   37.0900   -0.1842 H     1168  UNL1168     0.1146
   4672 H          19.2328   35.5303   -0.2326 H     1168  UNL1168     0.1146
   4673 N          19.2270   36.4004    2.4140 N.3   1169  UNL1169    -0.3437
   4674 H          18.7853   36.6910    3.2851 H     1169  UNL1169     0.1146
   4675 H          19.9526   37.0900    2.2233 H     1169  UNL1169     0.1146
   4676 H          19.7145   35.5303    2.6229 H     1169  UNL1169     0.1146
   4677 N          19.2270   36.2663    5.4322 N.3   1170  UNL1170    -0.3437
   4678 H          18.7853   36.7902    4.6781 H     1170  UNL1170     0.1146
   4679 H          19.9526   35.7008    4.9939 H     1170  UNL1170     0.1146
   4680 H          19.7145   36.9543    6.0043 H     1170  UNL1170     0.1146
   4681 N          19.2270   36.4004    7.6956 N.3   1171  UNL1171    -0.3437
   4682 H          18.7853   36.6910    8.5667 H     1171  UNL1171     0.1146
   4683 H          19.9526   37.0900    7.5049 H     1171  UNL1171     0.1146
   4684 H          19.7145   35.5303    7.9045 H     1171  UNL1171     0.1146
   4685 N          19.2270   36.4004   10.3364 N.3   1172  UNL1172    -0.3437
   4686 H          18.7853   36.6910   11.2075 H     1172  UNL1172     0.1146
   4687 H          19.9526   37.0900   10.1457 H     1172  UNL1172     0.1146
   4688 H          19.7145   35.5303   10.5453 H     1172  UNL1172     0.1146
   4689 N          19.2270   36.4004   12.9773 N.3   1173  UNL1173    -0.3437
   4690 H          18.7853   36.6910   13.8484 H     1173  UNL1173     0.1146
   4691 H          19.9526   37.0900   12.7866 H     1173  UNL1173     0.1146
   4692 H          19.7145   35.5303   13.1862 H     1173  UNL1173     0.1146
   4693 N          19.2270   36.4004   15.6181 N.3   1174  UNL1174    -0.3437
   4694 H          18.7853   36.6910   16.4892 H     1174  UNL1174     0.1146
   4695 H          19.9526   37.0900   15.4274 H     1174  UNL1174     0.1146
   4696 H          19.7145   35.5303   15.8270 H     1174  UNL1174     0.1146
   4697 N          19.2270   36.4004   18.2589 N.3   1175  UNL1175    -0.3437
   4698 H          18.7853   36.6910   19.1300 H     1175  UNL1175     0.1146
   4699 H          19.9526   37.0900   18.0682 H     1175  UNL1175     0.1146
   4700 H          19.7145   35.5303   18.4678 H     1175  UNL1175     0.1146
   4701 N          19.2270   36.4004   20.8997 N.3   1176  UNL1176    -0.3437
   4702 H          18.7853   36.6910   21.7708 H     1176  UNL1176     0.1146
   4703 H          19.9526   37.0900   20.7090 H     1176  UNL1176     0.1146
   4704 H          19.7145   35.5303   21.1086 H     1176  UNL1176     0.1146
   4705 N          19.2270   39.4423    0.1065 N.3   1177  UNL1177    -0.3437
   4706 H          18.7853   38.5705   -0.1820 H     1177  UNL1177     0.1146
   4707 H          19.9526   39.1824    0.7731 H     1177  UNL1177     0.1146
   4708 H          19.7145   39.7956   -0.7156 H     1177  UNL1177     0.1146
   4709 N          19.2270   39.4423    2.7473 N.3   1178  UNL1178    -0.3437
   4710 H          18.7853   38.5705    2.4588 H     1178  UNL1178     0.1146
   4711 H          19.9526   39.1824    3.4139 H     1178  UNL1178     0.1146
   4712 H          19.7145   39.7956    1.9252 H     1178  UNL1178     0.1146
   4713 N          19.2270   39.4423    5.3881 N.3   1179  UNL1179    -0.3437
   4714 H          18.7853   38.5705    5.0996 H     1179  UNL1179     0.1146
   4715 H          19.9526   39.1824    6.0547 H     1179  UNL1179     0.1146
   4716 H          19.7145   39.7956    4.5660 H     1179  UNL1179     0.1146
   4717 N          19.2270   39.4423    8.0289 N.3   1180  UNL1180    -0.3437
   4718 H          18.7853   38.5705    7.7404 H     1180  UNL1180     0.1146
   4719 H          19.9526   39.1824    8.6955 H     1180  UNL1180     0.1146
   4720 H          19.7145   39.7956    7.2068 H     1180  UNL1180     0.1146
   4721 N          19.2270   39.2202   10.3364 N.3   1181  UNL1181    -0.3437
   4722 H          18.7853   39.5108   11.2075 H     1181  UNL1181     0.1146
   4723 H          19.9526   39.9098   10.1457 H     1181  UNL1181     0.1146
   4724 H          19.7145   38.3501   10.5453 H     1181  UNL1181     0.1146
   4725 N          19.2270   39.2202   12.9773 N.3   1182  UNL1182    -0.3437
   4726 H          18.7853   39.5108   13.8484 H     1182  UNL1182     0.1146
   4727 H          19.9526   39.9098   12.7866 H     1182  UNL1182     0.1146
   4728 H          19.7145   38.3501   13.1862 H     1182  UNL1182     0.1146
   4729 N          19.2270   39.2202   15.6181 N.3   1183  UNL1183    -0.3437
   4730 H          18.7853   39.5108   16.4892 H     1183  UNL1183     0.1146
   4731 H          19.9526   39.9098   15.4274 H     1183  UNL1183     0.1146
   4732 H          19.7145   38.3501   15.8270 H     1183  UNL1183     0.1146
   4733 N          19.2270   39.2202   18.2589 N.3   1184  UNL1184    -0.3437
   4734 H          18.7853   39.5108   19.1300 H     1184  UNL1184     0.1146
   4735 H          19.9526   39.9098   18.0682 H     1184  UNL1184     0.1146
   4736 H          19.7145   38.3501   18.4678 H     1184  UNL1184     0.1146
   4737 N          19.2270   39.2202   20.8997 N.3   1185  UNL1185    -0.3437
   4738 H          18.7853   39.5108   21.7708 H     1185  UNL1185     0.1146
   4739 H          19.9526   39.9098   20.7090 H     1185  UNL1185     0.1146
   4740 H          19.7145   38.3501   21.1086 H     1185  UNL1185     0.1146
   4741 N          21.7587   -0.2567   -0.2269 N.3   1186  UNL1186    -0.3437
   4742 H          21.3170    0.0339    0.6442 H     1186  UNL1186     0.1146
   4743 H          22.4843    0.4329   -0.4176 H     1186  UNL1186     0.1146
   4744 H          22.2462   -1.1268   -0.0180 H     1186  UNL1186     0.1146
   4745 N          21.7587   -0.2567    2.4140 N.3   1187  UNL1187    -0.3437
   4746 H          21.3170    0.0339    3.2851 H     1187  UNL1187     0.1146
   4747 H          22.4843    0.4329    2.2233 H     1187  UNL1187     0.1146
   4748 H          22.2462   -1.1268    2.6229 H     1187  UNL1187     0.1146
   4749 N          21.7587   -0.2567    5.0548 N.3   1188  UNL1188    -0.3437
   4750 H          21.3170    0.0339    5.9259 H     1188  UNL1188     0.1146
   4751 H          22.4843    0.4329    4.8641 H     1188  UNL1188     0.1146
   4752 H          22.2462   -1.1268    5.2637 H     1188  UNL1188     0.1146
   4753 N          21.7587   -0.2567    7.6956 N.3   1189  UNL1189    -0.3437
   4754 H          21.3170    0.0339    8.5667 H     1189  UNL1189     0.1146
   4755 H          22.4843    0.4329    7.5049 H     1189  UNL1189     0.1146
   4756 H          22.2462   -1.1268    7.9045 H     1189  UNL1189     0.1146
   4757 N          21.7587   -0.2567   10.3364 N.3   1190  UNL1190    -0.3437
   4758 H          21.3170    0.0339   11.2075 H     1190  UNL1190     0.1146
   4759 H          22.4843    0.4329   10.1457 H     1190  UNL1190     0.1146
   4760 H          22.2462   -1.1268   10.5453 H     1190  UNL1190     0.1146
   4761 N          21.7587   -0.2567   12.9773 N.3   1191  UNL1191    -0.3437
   4762 H          21.3170    0.0339   13.8484 H     1191  UNL1191     0.1146
   4763 H          22.4843    0.4329   12.7866 H     1191  UNL1191     0.1146
   4764 H          22.2462   -1.1268   13.1862 H     1191  UNL1191     0.1146
   4765 N          21.7587   -0.2567   15.6181 N.3   1192  UNL1192    -0.3437
   4766 H          21.3170    0.0339   16.4892 H     1192  UNL1192     0.1146
   4767 H          22.4843    0.4329   15.4274 H     1192  UNL1192     0.1146
   4768 H          22.2462   -1.1268   15.8270 H     1192  UNL1192     0.1146
   4769 N          21.7587   -0.2567   18.2589 N.3   1193  UNL1193    -0.3437
   4770 H          21.3170    0.0339   19.1300 H     1193  UNL1193     0.1146
   4771 H          22.4843    0.4329   18.0682 H     1193  UNL1193     0.1146
   4772 H          22.2462   -1.1268   18.4678 H     1193  UNL1193     0.1146
   4773 N          21.7587   -0.2567   20.8997 N.3   1194  UNL1194    -0.3437
   4774 H          21.3170    0.0339   21.7708 H     1194  UNL1194     0.1146
   4775 H          22.4843    0.4329   20.7090 H     1194  UNL1194     0.1146
   4776 H          22.2462   -1.1268   21.1086 H     1194  UNL1194     0.1146
   4777 N          21.7587    2.5631   -0.2269 N.3   1195  UNL1195    -0.3437
   4778 H          21.3170    2.8537    0.6442 H     1195  UNL1195     0.1146
   4779 H          22.4843    3.2527   -0.4176 H     1195  UNL1195     0.1146
   4780 H          22.2462    1.6930   -0.0180 H     1195  UNL1195     0.1146
   4781 N          21.7587    2.5631    2.4140 N.3   1196  UNL1196    -0.3437
   4782 H          21.3170    2.8537    3.2851 H     1196  UNL1196     0.1146
   4783 H          22.4843    3.2527    2.2233 H     1196  UNL1196     0.1146
   4784 H          22.2462    1.6930    2.6229 H     1196  UNL1196     0.1146
   4785 N          21.7587    2.5631    5.0548 N.3   1197  UNL1197    -0.3437
   4786 H          21.3170    2.8537    5.9259 H     1197  UNL1197     0.1146
   4787 H          22.4843    3.2527    4.8641 H     1197  UNL1197     0.1146
   4788 H          22.2462    1.6930    5.2637 H     1197  UNL1197     0.1146
   4789 N          21.7587    2.5631    7.6956 N.3   1198  UNL1198    -0.3437
   4790 H          21.3170    2.8537    8.5667 H     1198  UNL1198     0.1146
   4791 H          22.4843    3.2527    7.5049 H     1198  UNL1198     0.1146
   4792 H          22.2462    1.6930    7.9045 H     1198  UNL1198     0.1146
   4793 N          21.7587    2.5631   10.3364 N.3   1199  UNL1199    -0.3437
   4794 H          21.3170    2.8537   11.2075 H     1199  UNL1199     0.1146
   4795 H          22.4843    3.2527   10.1457 H     1199  UNL1199     0.1146
   4796 H          22.2462    1.6930   10.5453 H     1199  UNL1199     0.1146
   4797 N          21.7587    2.5631   12.9773 N.3   1200  UNL1200    -0.3437
   4798 H          21.3170    2.8537   13.8484 H     1200  UNL1200     0.1146
   4799 H          22.4843    3.2527   12.7866 H     1200  UNL1200     0.1146
   4800 H          22.2462    1.6930   13.1862 H     1200  UNL1200     0.1146
   4801 N          21.7587    2.5631   15.6181 N.3   1201  UNL1201    -0.3437
   4802 H          21.3170    2.8537   16.4892 H     1201  UNL1201     0.1146
   4803 H          22.4843    3.2527   15.4274 H     1201  UNL1201     0.1146
   4804 H          22.2462    1.6930   15.8270 H     1201  UNL1201     0.1146
   4805 N          21.7587    2.5631   18.2589 N.3   1202  UNL1202    -0.3437
   4806 H          21.3170    2.8537   19.1300 H     1202  UNL1202     0.1146
   4807 H          22.4843    3.2527   18.0682 H     1202  UNL1202     0.1146
   4808 H          22.2462    1.6930   18.4678 H     1202  UNL1202     0.1146
   4809 N          21.7587    2.7852   21.2331 N.3   1203  UNL1203    -0.3437
   4810 H          21.3170    1.9134   20.9446 H     1203  UNL1203     0.1146
   4811 H          22.4843    2.5253   21.8997 H     1203  UNL1203     0.1146
   4812 H          22.2462    3.1385   20.4110 H     1203  UNL1203     0.1146
   4813 N          21.7587    5.6050    0.1065 N.3   1204  UNL1204    -0.3437
   4814 H          21.3170    4.7332   -0.1820 H     1204  UNL1204     0.1146
   4815 H          22.4843    5.3450    0.7731 H     1204  UNL1204     0.1146
   4816 H          22.2462    5.9583   -0.7156 H     1204  UNL1204     0.1146
   4817 N          21.7587    5.6050    2.7473 N.3   1205  UNL1205    -0.3437
   4818 H          21.3170    4.7332    2.4588 H     1205  UNL1205     0.1146
   4819 H          22.4843    5.3450    3.4139 H     1205  UNL1205     0.1146
   4820 H          22.2462    5.9583    1.9252 H     1205  UNL1205     0.1146
   4821 N          21.7587    5.6050    5.3881 N.3   1206  UNL1206    -0.3437
   4822 H          21.3170    4.7332    5.0996 H     1206  UNL1206     0.1146
   4823 H          22.4843    5.3450    6.0547 H     1206  UNL1206     0.1146
   4824 H          22.2462    5.9583    4.5660 H     1206  UNL1206     0.1146
   4825 N          21.7587    5.6050    8.0289 N.3   1207  UNL1207    -0.3437
   4826 H          21.3170    4.7332    7.7404 H     1207  UNL1207     0.1146
   4827 H          22.4843    5.3450    8.6955 H     1207  UNL1207     0.1146
   4828 H          22.2462    5.9583    7.2068 H     1207  UNL1207     0.1146
   4829 N          21.7587    5.3829   10.3364 N.3   1208  UNL1208    -0.3437
   4830 H          21.3170    5.6735   11.2075 H     1208  UNL1208     0.1146
   4831 H          22.4843    6.0725   10.1457 H     1208  UNL1208     0.1146
   4832 H          22.2462    4.5128   10.5453 H     1208  UNL1208     0.1146
   4833 N          21.7587    5.3829   12.9773 N.3   1209  UNL1209    -0.3437
   4834 H          21.3170    5.6735   13.8484 H     1209  UNL1209     0.1146
   4835 H          22.4843    6.0725   12.7866 H     1209  UNL1209     0.1146
   4836 H          22.2462    4.5128   13.1862 H     1209  UNL1209     0.1146
   4837 N          21.7223    5.2900   15.6979 N.3   1210  UNL1210    -0.3437
   4838 H          21.8500    4.9068   16.6334 H     1210  UNL1210     0.1146
   4839 H          21.6272    6.2975   15.8176 H     1210  UNL1210     0.1146
   4840 H          22.6069    5.1472   15.2127 H     1210  UNL1210     0.1146
   4841 N          21.7587    5.6050   18.5922 N.3   1211  UNL1211    -0.3437
   4842 H          21.3170    4.7332   18.3037 H     1211  UNL1211     0.1146
   4843 H          22.4843    5.3450   19.2588 H     1211  UNL1211     0.1146
   4844 H          22.2462    5.9583   17.7701 H     1211  UNL1211     0.1146
   4845 N          21.7587    5.3829   20.8997 N.3   1212  UNL1212    -0.3437
   4846 H          21.3170    5.6735   21.7708 H     1212  UNL1212     0.1146
   4847 H          22.4843    6.0725   20.7090 H     1212  UNL1212     0.1146
   4848 H          22.2462    4.5128   21.1086 H     1212  UNL1212     0.1146
   4849 N          21.7587    8.2026   -0.2269 N.3   1213  UNL1213    -0.3437
   4850 H          21.3170    8.4932    0.6442 H     1213  UNL1213     0.1146
   4851 H          22.4843    8.8922   -0.4176 H     1213  UNL1213     0.1146
   4852 H          22.2462    7.3325   -0.0180 H     1213  UNL1213     0.1146
   4853 N          21.7587    8.2026    2.4140 N.3   1214  UNL1214    -0.3437
   4854 H          21.3170    8.4932    3.2851 H     1214  UNL1214     0.1146
   4855 H          22.4843    8.8922    2.2233 H     1214  UNL1214     0.1146
   4856 H          22.2462    7.3325    2.6229 H     1214  UNL1214     0.1146
   4857 N          21.7587    8.2026    5.0548 N.3   1215  UNL1215    -0.3437
   4858 H          21.3170    8.4932    5.9259 H     1215  UNL1215     0.1146
   4859 H          22.4843    8.8922    4.8641 H     1215  UNL1215     0.1146
   4860 H          22.2462    7.3325    5.2637 H     1215  UNL1215     0.1146
   4861 N          21.7587    8.2026    7.6956 N.3   1216  UNL1216    -0.3437
   4862 H          21.3170    8.4932    8.5667 H     1216  UNL1216     0.1146
   4863 H          22.4843    8.8922    7.5049 H     1216  UNL1216     0.1146
   4864 H          22.2462    7.3325    7.9045 H     1216  UNL1216     0.1146
   4865 N          19.7587    8.2026   10.3364 N.3   1217  UNL1217    -0.3437
   4866 H          19.3170    8.4932   11.2075 H     1217  UNL1217     0.1146
   4867 H          20.4843    8.8922   10.1457 H     1217  UNL1217     0.1146
   4868 H          20.2462    7.3325   10.5453 H     1217  UNL1217     0.1146
   4869 N          21.8889    8.2026   13.4871 N.3   1218  UNL1218    -0.3437
   4870 H          22.8511    8.4932   13.3197 H     1218  UNL1218     0.1146
   4871 H          21.3019    8.8922   13.0199 H     1218  UNL1218     0.1146
   4872 H          21.7645    7.3325   12.9716 H     1218  UNL1218     0.1146
   4873 N          21.7587    8.2026   15.6181 N.3   1219  UNL1219    -0.3437
   4874 H          21.3170    8.4932   16.4892 H     1219  UNL1219     0.1146
   4875 H          22.4843    8.8922   15.4274 H     1219  UNL1219     0.1146
   4876 H          22.2462    7.3325   15.8270 H     1219  UNL1219     0.1146
   4877 N          21.7587    8.2026   18.2589 N.3   1220  UNL1220    -0.3437
   4878 H          21.3170    8.4932   19.1300 H     1220  UNL1220     0.1146
   4879 H          22.4843    8.8922   18.0682 H     1220  UNL1220     0.1146
   4880 H          22.2462    7.3325   18.4678 H     1220  UNL1220     0.1146
   4881 N          21.7587    8.2026   20.8997 N.3   1221  UNL1221    -0.3437
   4882 H          21.3170    8.4932   21.7708 H     1221  UNL1221     0.1146
   4883 H          22.4843    8.8922   20.7090 H     1221  UNL1221     0.1146
   4884 H          22.2462    7.3325   21.1086 H     1221  UNL1221     0.1146
   4885 N          21.7587   11.2445    0.1065 N.3   1222  UNL1222    -0.3437
   4886 H          21.3170   10.3727   -0.1820 H     1222  UNL1222     0.1146
   4887 H          22.4843   10.9846    0.7731 H     1222  UNL1222     0.1146
   4888 H          22.2462   11.5979   -0.7156 H     1222  UNL1222     0.1146
   4889 N          19.8889   11.0224    2.9238 N.3   1223  UNL1223    -0.3437
   4890 H          20.8511   11.3130    2.7564 H     1223  UNL1223     0.1146
   4891 H          19.3019   11.7120    2.4566 H     1223  UNL1223     0.1146
   4892 H          19.7645   10.1523    2.4083 H     1223  UNL1223     0.1146
   4893 N          21.7587   11.2445    5.3881 N.3   1224  UNL1224    -0.3437
   4894 H          21.3170   10.3727    5.0996 H     1224  UNL1224     0.1146
   4895 H          22.4843   10.9846    6.0547 H     1224  UNL1224     0.1146
   4896 H          22.2462   11.5979    4.5660 H     1224  UNL1224     0.1146
   4897 N          21.7587   11.2445    8.0289 N.3   1225  UNL1225    -0.3437
   4898 H          21.3170   10.3727    7.7404 H     1225  UNL1225     0.1146
   4899 H          22.4843   10.9846    8.6955 H     1225  UNL1225     0.1146
   4900 H          22.2462   11.5979    7.2068 H     1225  UNL1225     0.1146
   4901 N          21.7587   11.0224   10.3364 N.3   1226  UNL1226    -0.3437
   4902 H          21.3170   11.3130   11.2075 H     1226  UNL1226     0.1146
   4903 H          22.4843   11.7120   10.1457 H     1226  UNL1226     0.1146
   4904 H          22.2462   10.1523   10.5453 H     1226  UNL1226     0.1146
   4905 N          21.7587   11.0224   12.9773 N.3   1227  UNL1227    -0.3437
   4906 H          21.3170   11.3130   13.8484 H     1227  UNL1227     0.1146
   4907 H          22.4843   11.7120   12.7866 H     1227  UNL1227     0.1146
   4908 H          22.2462   10.1523   13.1862 H     1227  UNL1227     0.1146
   4909 N          21.9653   11.2378   15.6126 N.3   1228  UNL1228    -0.3437
   4910 H          21.3439   11.5607   16.3528 H     1228  UNL1228     0.1146
   4911 H          22.8715   11.0855   16.0532 H     1228  UNL1228     0.1146
   4912 H          21.6257   10.3157   15.3430 H     1228  UNL1228     0.1146
   4913 N          21.7587   11.2445   18.5922 N.3   1229  UNL1229    -0.3437
   4914 H          21.3170   10.3727   18.3037 H     1229  UNL1229     0.1146
   4915 H          22.4843   10.9846   19.2588 H     1229  UNL1229     0.1146
   4916 H          22.2462   11.5979   17.7701 H     1229  UNL1229     0.1146
   4917 N          21.7587   11.2445   21.2331 N.3   1230  UNL1230    -0.3437
   4918 H          21.3170   10.3727   20.9446 H     1230  UNL1230     0.1146
   4919 H          22.4843   10.9846   21.8997 H     1230  UNL1230     0.1146
   4920 H          22.2462   11.5979   20.4110 H     1230  UNL1230     0.1146
   4921 N          21.7587   14.0643    0.1065 N.3   1231  UNL1231    -0.3437
   4922 H          21.3170   13.1925   -0.1820 H     1231  UNL1231     0.1146
   4923 H          22.4843   13.8044    0.7731 H     1231  UNL1231     0.1146
   4924 H          22.2462   14.4176   -0.7156 H     1231  UNL1231     0.1146
   4925 N          21.7587   14.0643    2.7473 N.3   1232  UNL1232    -0.3437
   4926 H          21.3170   13.1925    2.4588 H     1232  UNL1232     0.1146
   4927 H          22.4843   13.8044    3.4139 H     1232  UNL1232     0.1146
   4928 H          22.2462   14.4176    1.9252 H     1232  UNL1232     0.1146
   4929 N          21.7587   14.0643    5.3881 N.3   1233  UNL1233    -0.3437
   4930 H          21.3170   13.1925    5.0996 H     1233  UNL1233     0.1146
   4931 H          22.4843   13.8044    6.0547 H     1233  UNL1233     0.1146
   4932 H          22.2462   14.4176    4.5660 H     1233  UNL1233     0.1146
   4933 N          21.7587   14.0643    8.0289 N.3   1234  UNL1234    -0.3437
   4934 H          21.3170   13.1925    7.7404 H     1234  UNL1234     0.1146
   4935 H          22.4843   13.8044    8.6955 H     1234  UNL1234     0.1146
   4936 H          22.2462   14.4176    7.2068 H     1234  UNL1234     0.1146
   4937 N          21.7587   13.8422   10.3364 N.3   1235  UNL1235    -0.3437
   4938 H          21.3170   14.1328   11.2075 H     1235  UNL1235     0.1146
   4939 H          22.4843   14.5318   10.1457 H     1235  UNL1235     0.1146
   4940 H          22.2462   12.9721   10.5453 H     1235  UNL1235     0.1146
   4941 N          19.7587   13.8422   12.9773 N.3   1236  UNL1236    -0.3437
   4942 H          19.3170   14.1328   13.8484 H     1236  UNL1236     0.1146
   4943 H          20.4843   14.5318   12.7866 H     1236  UNL1236     0.1146
   4944 H          20.2462   12.9721   13.1862 H     1236  UNL1236     0.1146
   4945 N          19.7587   13.8422   15.6181 N.3   1237  UNL1237    -0.3437
   4946 H          19.3170   14.1328   16.4892 H     1237  UNL1237     0.1146
   4947 H          20.4843   14.5318   15.4274 H     1237  UNL1237     0.1146
   4948 H          20.2462   12.9721   15.8270 H     1237  UNL1237     0.1146
   4949 N          21.7587   14.0643   18.5922 N.3   1238  UNL1238    -0.3437
   4950 H          21.3170   13.1925   18.3037 H     1238  UNL1238     0.1146
   4951 H          22.4843   13.8044   19.2588 H     1238  UNL1238     0.1146
   4952 H          22.2462   14.4176   17.7701 H     1238  UNL1238     0.1146
   4953 N          21.7587   14.0643   21.2331 N.3   1239  UNL1239    -0.3437
   4954 H          21.3170   13.1925   20.9446 H     1239  UNL1239     0.1146
   4955 H          22.4843   13.8044   21.8997 H     1239  UNL1239     0.1146
   4956 H          22.2462   14.4176   20.4110 H     1239  UNL1239     0.1146
   4957 N          21.7587   16.6619    0.4140 N.3   1240  UNL1240    -0.3437
   4958 H          21.3170   16.9525    1.2851 H     1240  UNL1240     0.1146
   4959 H          22.4843   17.3516    0.2233 H     1240  UNL1240     0.1146
   4960 H          22.2462   15.7919    0.6229 H     1240  UNL1240     0.1146
   4961 N          21.7587   16.6619    3.0548 N.3   1241  UNL1241    -0.3437
   4962 H          21.3170   16.9525    3.9259 H     1241  UNL1241     0.1146
   4963 H          22.4843   17.3516    2.8641 H     1241  UNL1241     0.1146
   4964 H          22.2462   15.7919    3.2637 H     1241  UNL1241     0.1146
   4965 N          21.7587   16.6619    5.6956 N.3   1242  UNL1242    -0.3437
   4966 H          21.3170   16.9525    6.5667 H     1242  UNL1242     0.1146
   4967 H          22.4843   17.3516    5.5049 H     1242  UNL1242     0.1146
   4968 H          22.2462   15.7919    5.9045 H     1242  UNL1242     0.1146
   4969 N          21.7587   16.6619   10.3364 N.3   1243  UNL1243    -0.3437
   4970 H          21.3170   16.9525   11.2075 H     1243  UNL1243     0.1146
   4971 H          22.4843   17.3516   10.1457 H     1243  UNL1243     0.1146
   4972 H          22.2462   15.7919   10.5453 H     1243  UNL1243     0.1146
   4973 N          21.7587   16.6619   12.9773 N.3   1244  UNL1244    -0.3437
   4974 H          21.3170   16.9525   13.8484 H     1244  UNL1244     0.1146
   4975 H          22.4843   17.3516   12.7866 H     1244  UNL1244     0.1146
   4976 H          22.2462   15.7919   13.1862 H     1244  UNL1244     0.1146
   4977 N          21.7587   16.6619   15.6181 N.3   1245  UNL1245    -0.3437
   4978 H          21.3170   16.9525   16.4892 H     1245  UNL1245     0.1146
   4979 H          22.4843   17.3516   15.4274 H     1245  UNL1245     0.1146
   4980 H          22.2462   15.7919   15.8270 H     1245  UNL1245     0.1146
   4981 N          21.7587   16.8841   18.5922 N.3   1246  UNL1246    -0.3437
   4982 H          21.3170   16.0123   18.3037 H     1246  UNL1246     0.1146
   4983 H          22.4843   16.6241   19.2588 H     1246  UNL1246     0.1146
   4984 H          22.2462   17.2374   17.7701 H     1246  UNL1246     0.1146
   4985 N          21.7587   16.8841   21.2331 N.3   1247  UNL1247    -0.3437
   4986 H          21.3170   16.0123   20.9446 H     1247  UNL1247     0.1146
   4987 H          22.4843   16.6241   21.8997 H     1247  UNL1247     0.1146
   4988 H          22.2462   17.2374   20.4110 H     1247  UNL1247     0.1146
   4989 N          21.7587   19.7038    0.1065 N.3   1248  UNL1248    -0.3437
   4990 H          21.3170   18.8320   -0.1820 H     1248  UNL1248     0.1146
   4991 H          22.4843   19.4439    0.7731 H     1248  UNL1248     0.1146
   4992 H          22.2462   20.0572   -0.7156 H     1248  UNL1248     0.1146
   4993 N          21.7587   19.7038    2.7473 N.3   1249  UNL1249    -0.3437
   4994 H          21.3170   18.8320    2.4588 H     1249  UNL1249     0.1146
   4995 H          22.4843   19.4439    3.4139 H     1249  UNL1249     0.1146
   4996 H          22.2462   20.0572    1.9252 H     1249  UNL1249     0.1146
   4997 N          21.7587   19.7038    5.3881 N.3   1250  UNL1250    -0.3437
   4998 H          21.3170   18.8320    5.0996 H     1250  UNL1250     0.1146
   4999 H          22.4843   19.4439    6.0547 H     1250  UNL1250     0.1146
   5000 H          22.2462   20.0572    4.5660 H     1250  UNL1250     0.1146
   5001 N          21.7587   19.7038    8.0289 N.3   1251  UNL1251    -0.3437
   5002 H          21.3170   18.8320    7.7404 H     1251  UNL1251     0.1146
   5003 H          22.4843   19.4439    8.6955 H     1251  UNL1251     0.1146
   5004 H          22.2462   20.0572    7.2068 H     1251  UNL1251     0.1146
   5005 N          21.7587   19.4817   10.3364 N.3   1252  UNL1252    -0.3437
   5006 H          21.3170   19.7723   11.2075 H     1252  UNL1252     0.1146
   5007 H          22.4843   20.1713   10.1457 H     1252  UNL1252     0.1146
   5008 H          22.2462   18.6116   10.5453 H     1252  UNL1252     0.1146
   5009 N          21.9653   19.6971   12.9718 N.3   1253  UNL1253    -0.3437
   5010 H          21.3439   20.0200   13.7120 H     1253  UNL1253     0.1146
   5011 H          22.8715   19.5448   13.4124 H     1253  UNL1253     0.1146
   5012 H          21.6257   18.7751   12.7021 H     1253  UNL1253     0.1146
   5013 N          21.9653   19.6971   15.6126 N.3   1254  UNL1254    -0.3437
   5014 H          21.3439   20.0200   16.3528 H     1254  UNL1254     0.1146
   5015 H          22.8715   19.5448   16.0532 H     1254  UNL1254     0.1146
   5016 H          21.6257   18.7751   15.3430 H     1254  UNL1254     0.1146
   5017 N          21.7587   19.7038   18.5922 N.3   1255  UNL1255    -0.3437
   5018 H          21.3170   18.8320   18.3037 H     1255  UNL1255     0.1146
   5019 H          22.4843   19.4439   19.2588 H     1255  UNL1255     0.1146
   5020 H          22.2462   20.0572   17.7701 H     1255  UNL1255     0.1146
   5021 N          21.7587   19.7038   21.2331 N.3   1256  UNL1256    -0.3437
   5022 H          21.3170   18.8320   20.9446 H     1256  UNL1256     0.1146
   5023 H          22.4843   19.4439   21.8997 H     1256  UNL1256     0.1146
   5024 H          22.2462   20.0572   20.4110 H     1256  UNL1256     0.1146
   5025 N          21.7587   22.5236    0.1065 N.3   1257  UNL1257    -0.3437
   5026 H          21.3170   21.6518   -0.1820 H     1257  UNL1257     0.1146
   5027 H          22.4843   22.2637    0.7731 H     1257  UNL1257     0.1146
   5028 H          22.2462   22.8770   -0.7156 H     1257  UNL1257     0.1146
   5029 N          19.8889   22.3015    2.9238 N.3   1258  UNL1258    -0.3437
   5030 H          20.8511   22.5921    2.7564 H     1258  UNL1258     0.1146
   5031 H          19.3019   22.9911    2.4566 H     1258  UNL1258     0.1146
   5032 H          19.7645   21.4314    2.4083 H     1258  UNL1258     0.1146
   5033 N          21.7587   22.5236    5.3881 N.3   1259  UNL1259    -0.3437
   5034 H          21.3170   21.6518    5.0996 H     1259  UNL1259     0.1146
   5035 H          22.4843   22.2637    6.0547 H     1259  UNL1259     0.1146
   5036 H          22.2462   22.8770    4.5660 H     1259  UNL1259     0.1146
   5037 N          21.7587   22.5236    8.0289 N.3   1260  UNL1260    -0.3437
   5038 H          21.3170   21.6518    7.7404 H     1260  UNL1260     0.1146
   5039 H          22.4843   22.2637    8.6955 H     1260  UNL1260     0.1146
   5040 H          22.2462   22.8770    7.2068 H     1260  UNL1260     0.1146
   5041 N          21.7587   22.3015   10.3364 N.3   1261  UNL1261    -0.3437
   5042 H          21.3170   22.5921   11.2075 H     1261  UNL1261     0.1146
   5043 H          22.4843   22.9911   10.1457 H     1261  UNL1261     0.1146
   5044 H          22.2462   21.4314   10.5453 H     1261  UNL1261     0.1146
   5045 N          21.7587   22.3015   12.9773 N.3   1262  UNL1262    -0.3437
   5046 H          21.3170   22.5921   13.8484 H     1262  UNL1262     0.1146
   5047 H          22.4843   22.9911   12.7866 H     1262  UNL1262     0.1146
   5048 H          22.2462   21.4314   13.1862 H     1262  UNL1262     0.1146
   5049 N          21.7587   22.3015   15.6181 N.3   1263  UNL1263    -0.3437
   5050 H          21.3170   22.5921   16.4892 H     1263  UNL1263     0.1146
   5051 H          22.4843   22.9911   15.4274 H     1263  UNL1263     0.1146
   5052 H          22.2462   21.4314   15.8270 H     1263  UNL1263     0.1146
   5053 N          21.7587   22.5236   18.5922 N.3   1264  UNL1264    -0.3437
   5054 H          21.3170   21.6518   18.3037 H     1264  UNL1264     0.1146
   5055 H          22.4843   22.2637   19.2588 H     1264  UNL1264     0.1146
   5056 H          22.2462   22.8770   17.7701 H     1264  UNL1264     0.1146
   5057 N          19.9653   22.5169   20.8943 N.3   1265  UNL1265    -0.3437
   5058 H          19.3439   22.8398   21.6345 H     1265  UNL1265     0.1146
   5059 H          20.8715   22.3646   21.3348 H     1265  UNL1265     0.1146
   5060 H          19.6257   21.5948   20.6246 H     1265  UNL1265     0.1146
   5061 N          21.7587   25.1213    0.4140 N.3   1266  UNL1266    -0.3437
   5062 H          21.3170   25.4119    1.2851 H     1266  UNL1266     0.1146
   5063 H          22.4843   25.8109    0.2233 H     1266  UNL1266     0.1146
   5064 H          22.2462   24.2512    0.6229 H     1266  UNL1266     0.1146
   5065 N          21.7587   25.1213    3.0548 N.3   1267  UNL1267    -0.3437
   5066 H          21.3170   25.4119    3.9259 H     1267  UNL1267     0.1146
   5067 H          22.4843   25.8109    2.8641 H     1267  UNL1267     0.1146
   5068 H          22.2462   24.2512    3.2637 H     1267  UNL1267     0.1146
   5069 N          21.7587   25.1213    5.6956 N.3   1268  UNL1268    -0.3437
   5070 H          21.3170   25.4119    6.5667 H     1268  UNL1268     0.1146
   5071 H          22.4843   25.8109    5.5049 H     1268  UNL1268     0.1146
   5072 H          22.2462   24.2512    5.9045 H     1268  UNL1268     0.1146
   5073 N          21.7372   24.9485    8.5947 N.3   1269  UNL1269    -0.3437
   5074 H          21.7956   25.6068    9.3703 H     1269  UNL1269     0.1146
   5075 H          21.6123   25.5133    7.7558 H     1269  UNL1269     0.1146
   5076 H          22.6612   24.5266    8.5142 H     1269  UNL1269     0.1146
   5077 N          21.7587   25.3434   11.3106 N.3   1270  UNL1270    -0.3437
   5078 H          21.3170   24.4716   11.0221 H     1270  UNL1270     0.1146
   5079 H          22.4843   25.0835   11.9772 H     1270  UNL1270     0.1146
   5080 H          22.2462   25.6967   10.4885 H     1270  UNL1270     0.1146
   5081 N          21.7587   25.3434   13.9514 N.3   1271  UNL1271    -0.3437
   5082 H          21.3170   24.4716   13.6629 H     1271  UNL1271     0.1146
   5083 H          22.4843   25.0835   14.6180 H     1271  UNL1271     0.1146
   5084 H          22.2462   25.6967   13.1293 H     1271  UNL1271     0.1146
   5085 N          21.7033   25.3074   16.5050 N.3   1272  UNL1272    -0.3437
   5086 H          22.1194   25.0888   17.4091 H     1272  UNL1272     0.1146
   5087 H          22.4273   25.7861   15.9710 H     1272  UNL1272     0.1146
   5088 H          21.5564   24.4128   16.0398 H     1272  UNL1272     0.1146
   5089 N          22.0450   25.3198   18.8997 N.3   1273  UNL1273    -0.3437
   5090 H          22.5421   25.4997   19.7708 H     1273  UNL1273     0.1146
   5091 H          22.1632   24.3258   18.7090 H     1273  UNL1273     0.1146
   5092 H          21.0561   25.4499   19.1086 H     1273  UNL1273     0.1146
   5093 N          21.7587   25.1213   21.5406 N.3   1274  UNL1274    -0.3437
   5094 H          21.3170   25.4119   22.4117 H     1274  UNL1274     0.1146
   5095 H          22.4843   25.8109   21.3499 H     1274  UNL1274     0.1146
   5096 H          22.2462   24.2512   21.7495 H     1274  UNL1274     0.1146
   5097 N          21.7587   28.1632    0.1065 N.3   1275  UNL1275    -0.3437
   5098 H          21.3170   27.2914   -0.1820 H     1275  UNL1275     0.1146
   5099 H          22.4843   27.9032    0.7731 H     1275  UNL1275     0.1146
   5100 H          22.2462   28.5165   -0.7156 H     1275  UNL1275     0.1146
   5101 N          21.7587   28.1632    2.7473 N.3   1276  UNL1276    -0.3437
   5102 H          21.3170   27.2914    2.4588 H     1276  UNL1276     0.1146
   5103 H          22.4843   27.9032    3.4139 H     1276  UNL1276     0.1146
   5104 H          22.2462   28.5165    1.9252 H     1276  UNL1276     0.1146
   5105 N          21.7587   28.1632    5.3881 N.3   1277  UNL1277    -0.3437
   5106 H          21.3170   27.2914    5.0996 H     1277  UNL1277     0.1146
   5107 H          22.4843   27.9032    6.0547 H     1277  UNL1277     0.1146
   5108 H          22.2462   28.5165    4.5660 H     1277  UNL1277     0.1146
   5109 N          21.7587   28.1632    8.0289 N.3   1278  UNL1278    -0.3437
   5110 H          21.3170   27.2914    7.7404 H     1278  UNL1278     0.1146
   5111 H          22.4843   27.9032    8.6955 H     1278  UNL1278     0.1146
   5112 H          22.2462   28.5165    7.2068 H     1278  UNL1278     0.1146
   5113 N          21.7587   27.9410   10.3364 N.3   1279  UNL1279    -0.3437
   5114 H          21.3170   28.2316   11.2075 H     1279  UNL1279     0.1146
   5115 H          22.4843   28.6306   10.1457 H     1279  UNL1279     0.1146
   5116 H          22.2462   27.0709   10.5453 H     1279  UNL1279     0.1146
   5117 N          21.7587   28.1632   13.3106 N.3   1280  UNL1280    -0.3437
   5118 H          21.3170   27.2914   13.0221 H     1280  UNL1280     0.1146
   5119 H          22.4843   27.9032   13.9772 H     1280  UNL1280     0.1146
   5120 H          22.2462   28.5165   12.4885 H     1280  UNL1280     0.1146
   5121 N          21.7587   28.1632   15.9514 N.3   1281  UNL1281    -0.3437
   5122 H          21.3170   27.2914   15.6629 H     1281  UNL1281     0.1146
   5123 H          22.4843   27.9032   16.6180 H     1281  UNL1281     0.1146
   5124 H          22.2462   28.5165   15.1293 H     1281  UNL1281     0.1146
   5125 N          21.7587   28.1632   18.5922 N.3   1282  UNL1282    -0.3437
   5126 H          21.3170   27.2914   18.3037 H     1282  UNL1282     0.1146
   5127 H          22.4843   27.9032   19.2588 H     1282  UNL1282     0.1146
   5128 H          22.2462   28.5165   17.7701 H     1282  UNL1282     0.1146
   5129 N          21.7587   28.1632   21.2331 N.3   1283  UNL1283    -0.3437
   5130 H          21.3170   27.2914   20.9446 H     1283  UNL1283     0.1146
   5131 H          22.4843   27.9032   21.8997 H     1283  UNL1283     0.1146
   5132 H          22.2462   28.5165   20.4110 H     1283  UNL1283     0.1146
   5133 N          21.7587   30.7608   -0.2269 N.3   1284  UNL1284    -0.3437
   5134 H          21.3170   31.0514    0.6442 H     1284  UNL1284     0.1146
   5135 H          22.4843   31.4504   -0.4176 H     1284  UNL1284     0.1146
   5136 H          22.2462   29.8907   -0.0180 H     1284  UNL1284     0.1146
   5137 N          21.7587   30.7608    2.4140 N.3   1285  UNL1285    -0.3437
   5138 H          21.3170   31.0514    3.2851 H     1285  UNL1285     0.1146
   5139 H          22.4843   31.4504    2.2233 H     1285  UNL1285     0.1146
   5140 H          22.2462   29.8907    2.6229 H     1285  UNL1285     0.1146
   5141 N          21.7587   30.7608    5.0548 N.3   1286  UNL1286    -0.3437
   5142 H          21.3170   31.0514    5.9259 H     1286  UNL1286     0.1146
   5143 H          22.4843   31.4504    4.8641 H     1286  UNL1286     0.1146
   5144 H          22.2462   29.8907    5.2637 H     1286  UNL1286     0.1146
   5145 N          21.7587   30.7608    7.6956 N.3   1287  UNL1287    -0.3437
   5146 H          21.3170   31.0514    8.5667 H     1287  UNL1287     0.1146
   5147 H          22.4843   31.4504    7.5049 H     1287  UNL1287     0.1146
   5148 H          22.2462   29.8907    7.9045 H     1287  UNL1287     0.1146
   5149 N          19.7587   30.7608   10.3364 N.3   1288  UNL1288    -0.3437
   5150 H          19.3170   31.0514   11.2075 H     1288  UNL1288     0.1146
   5151 H          20.4843   31.4504   10.1457 H     1288  UNL1288     0.1146
   5152 H          20.2462   29.8907   10.5453 H     1288  UNL1288     0.1146
   5153 N          21.7587   30.7608   12.9773 N.3   1289  UNL1289    -0.3437
   5154 H          21.3170   31.0514   13.8484 H     1289  UNL1289     0.1146
   5155 H          22.4843   31.4504   12.7866 H     1289  UNL1289     0.1146
   5156 H          22.2462   29.8907   13.1862 H     1289  UNL1289     0.1146
   5157 N          21.7587   30.7608   15.6181 N.3   1290  UNL1290    -0.3437
   5158 H          21.3170   31.0514   16.4892 H     1290  UNL1290     0.1146
   5159 H          22.4843   31.4504   15.4274 H     1290  UNL1290     0.1146
   5160 H          22.2462   29.8907   15.8270 H     1290  UNL1290     0.1146
   5161 N          21.7587   30.7608   18.2589 N.3   1291  UNL1291    -0.3437
   5162 H          21.3170   31.0514   19.1300 H     1291  UNL1291     0.1146
   5163 H          22.4843   31.4504   18.0682 H     1291  UNL1291     0.1146
   5164 H          22.2462   29.8907   18.4678 H     1291  UNL1291     0.1146
   5165 N          21.7587   30.7608   20.8997 N.3   1292  UNL1292    -0.3437
   5166 H          21.3170   31.0514   21.7708 H     1292  UNL1292     0.1146
   5167 H          22.4843   31.4504   20.7090 H     1292  UNL1292     0.1146
   5168 H          22.2462   29.8907   21.1086 H     1292  UNL1292     0.1146
   5169 N          21.7587   33.5806   -0.2269 N.3   1293  UNL1293    -0.3437
   5170 H          21.3170   33.8712    0.6442 H     1293  UNL1293     0.1146
   5171 H          22.4843   34.2702   -0.4176 H     1293  UNL1293     0.1146
   5172 H          22.2462   32.7105   -0.0180 H     1293  UNL1293     0.1146
   5173 N          21.7587   33.5806    2.4140 N.3   1294  UNL1294    -0.3437
   5174 H          21.3170   33.8712    3.2851 H     1294  UNL1294     0.1146
   5175 H          22.4843   34.2702    2.2233 H     1294  UNL1294     0.1146
   5176 H          22.2462   32.7105    2.6229 H     1294  UNL1294     0.1146
   5177 N          21.7587   33.5806    5.0548 N.3   1295  UNL1295    -0.3437
   5178 H          21.3170   33.8712    5.9259 H     1295  UNL1295     0.1146
   5179 H          22.4843   34.2702    4.8641 H     1295  UNL1295     0.1146
   5180 H          22.2462   32.7105    5.2637 H     1295  UNL1295     0.1146
   5181 N          21.7587   33.5806    7.6956 N.3   1296  UNL1296    -0.3437
   5182 H          21.3170   33.8712    8.5667 H     1296  UNL1296     0.1146
   5183 H          22.4843   34.2702    7.5049 H     1296  UNL1296     0.1146
   5184 H          22.2462   32.7105    7.9045 H     1296  UNL1296     0.1146
   5185 N          21.7587   33.5806   10.3364 N.3   1297  UNL1297    -0.3437
   5186 H          21.3170   33.8712   11.2075 H     1297  UNL1297     0.1146
   5187 H          22.4843   34.2702   10.1457 H     1297  UNL1297     0.1146
   5188 H          22.2462   32.7105   10.5453 H     1297  UNL1297     0.1146
   5189 N          21.7587   33.5806   12.9773 N.3   1298  UNL1298    -0.3437
   5190 H          21.3170   33.8712   13.8484 H     1298  UNL1298     0.1146
   5191 H          22.4843   34.2702   12.7866 H     1298  UNL1298     0.1146
   5192 H          22.2462   32.7105   13.1862 H     1298  UNL1298     0.1146
   5193 N          21.7587   33.5806   15.6181 N.3   1299  UNL1299    -0.3437
   5194 H          21.3170   33.8712   16.4892 H     1299  UNL1299     0.1146
   5195 H          22.4843   34.2702   15.4274 H     1299  UNL1299     0.1146
   5196 H          22.2462   32.7105   15.8270 H     1299  UNL1299     0.1146
   5197 N          21.7587   33.5806   18.2589 N.3   1300  UNL1300    -0.3437
   5198 H          21.3170   33.8712   19.1300 H     1300  UNL1300     0.1146
   5199 H          22.4843   34.2702   18.0682 H     1300  UNL1300     0.1146
   5200 H          22.2462   32.7105   18.4678 H     1300  UNL1300     0.1146
   5201 N          21.7587   33.5806   20.8997 N.3   1301  UNL1301    -0.3437
   5202 H          21.3170   33.8712   21.7708 H     1301  UNL1301     0.1146
   5203 H          22.4843   34.2702   20.7090 H     1301  UNL1301     0.1146
   5204 H          22.2462   32.7105   21.1086 H     1301  UNL1301     0.1146
   5205 N          21.7033   36.5865    0.6601 N.3   1302  UNL1302    -0.3437
   5206 H          22.1194   36.3679    1.5642 H     1302  UNL1302     0.1146
   5207 H          22.4273   37.0652    0.1260 H     1302  UNL1302     0.1146
   5208 H          21.5564   35.6919    0.1948 H     1302  UNL1302     0.1146
   5209 N          21.7033   36.5865    3.3009 N.3   1303  UNL1303    -0.3437
   5210 H          22.1194   36.3679    4.2050 H     1303  UNL1303     0.1146
   5211 H          22.4273   37.0652    2.7669 H     1303  UNL1303     0.1146
   5212 H          21.5564   35.6919    2.8357 H     1303  UNL1303     0.1146
   5213 N          21.6750   36.4174    7.8143 N.3   1304  UNL1304    -0.3437
   5214 H          21.8127   35.8238    8.6311 H     1304  UNL1304     0.1146
   5215 H          21.9541   37.3554    8.0985 H     1304  UNL1304     0.1146
   5216 H          22.3647   36.1150    7.1279 H     1304  UNL1304     0.1146
   5217 N          21.7587   36.4004   10.3364 N.3   1305  UNL1305    -0.3437
   5218 H          21.3170   36.6910   11.2075 H     1305  UNL1305     0.1146
   5219 H          22.4843   37.0900   10.1457 H     1305  UNL1305     0.1146
   5220 H          22.2462   35.5303   10.5453 H     1305  UNL1305     0.1146
   5221 N          21.7587   36.4004   12.9773 N.3   1306  UNL1306    -0.3437
   5222 H          21.3170   36.6910   13.8484 H     1306  UNL1306     0.1146
   5223 H          22.4843   37.0900   12.7866 H     1306  UNL1306     0.1146
   5224 H          22.2462   35.5303   13.1862 H     1306  UNL1306     0.1146
   5225 N          21.7587   36.4004   15.6181 N.3   1307  UNL1307    -0.3437
   5226 H          21.3170   36.6910   16.4892 H     1307  UNL1307     0.1146
   5227 H          22.4843   37.0900   15.4274 H     1307  UNL1307     0.1146
   5228 H          22.2462   35.5303   15.8270 H     1307  UNL1307     0.1146
   5229 N          21.7587   36.4004   18.2589 N.3   1308  UNL1308    -0.3437
   5230 H          21.3170   36.6910   19.1300 H     1308  UNL1308     0.1146
   5231 H          22.4843   37.0900   18.0682 H     1308  UNL1308     0.1146
   5232 H          22.2462   35.5303   18.4678 H     1308  UNL1308     0.1146
   5233 N          21.7587   36.4004   20.8997 N.3   1309  UNL1309    -0.3437
   5234 H          21.3170   36.6910   21.7708 H     1309  UNL1309     0.1146
   5235 H          22.4843   37.0900   20.7090 H     1309  UNL1309     0.1146
   5236 H          22.2462   35.5303   21.1086 H     1309  UNL1309     0.1146
   5237 N          21.7587   39.4423    0.1065 N.3   1310  UNL1310    -0.3437
   5238 H          21.3170   38.5705   -0.1820 H     1310  UNL1310     0.1146
   5239 H          22.4843   39.1824    0.7731 H     1310  UNL1310     0.1146
   5240 H          22.2462   39.7956   -0.7156 H     1310  UNL1310     0.1146
   5241 N          21.7587   39.4423    2.7473 N.3   1311  UNL1311    -0.3437
   5242 H          21.3170   38.5705    2.4588 H     1311  UNL1311     0.1146
   5243 H          22.4843   39.1824    3.4139 H     1311  UNL1311     0.1146
   5244 H          22.2462   39.7956    1.9252 H     1311  UNL1311     0.1146
   5245 N          21.7587   39.4423    5.3881 N.3   1312  UNL1312    -0.3437
   5246 H          21.3170   38.5705    5.0996 H     1312  UNL1312     0.1146
   5247 H          22.4843   39.1824    6.0547 H     1312  UNL1312     0.1146
   5248 H          22.2462   39.7956    4.5660 H     1312  UNL1312     0.1146
   5249 N          21.7587   39.4423    8.0289 N.3   1313  UNL1313    -0.3437
   5250 H          21.3170   38.5705    7.7404 H     1313  UNL1313     0.1146
   5251 H          22.4843   39.1824    8.6955 H     1313  UNL1313     0.1146
   5252 H          22.2462   39.7956    7.2068 H     1313  UNL1313     0.1146
   5253 N          21.7587   39.2202   10.3364 N.3   1314  UNL1314    -0.3437
   5254 H          21.3170   39.5108   11.2075 H     1314  UNL1314     0.1146
   5255 H          22.4843   39.9098   10.1457 H     1314  UNL1314     0.1146
   5256 H          22.2462   38.3501   10.5453 H     1314  UNL1314     0.1146
   5257 N          21.7587   39.2202   12.9773 N.3   1315  UNL1315    -0.3437
   5258 H          21.3170   39.5108   13.8484 H     1315  UNL1315     0.1146
   5259 H          22.4843   39.9098   12.7866 H     1315  UNL1315     0.1146
   5260 H          22.2462   38.3501   13.1862 H     1315  UNL1315     0.1146
   5261 N          21.7587   39.2202   15.6181 N.3   1316  UNL1316    -0.3437
   5262 H          21.3170   39.5108   16.4892 H     1316  UNL1316     0.1146
   5263 H          22.4843   39.9098   15.4274 H     1316  UNL1316     0.1146
   5264 H          22.2462   38.3501   15.8270 H     1316  UNL1316     0.1146
   5265 N          21.7587   39.2202   18.2589 N.3   1317  UNL1317    -0.3437
   5266 H          21.3170   39.5108   19.1300 H     1317  UNL1317     0.1146
   5267 H          22.4843   39.9098   18.0682 H     1317  UNL1317     0.1146
   5268 H          22.2462   38.3501   18.4678 H     1317  UNL1317     0.1146
   5269 N          21.7587   39.2202   20.8997 N.3   1318  UNL1318    -0.3437
   5270 H          21.3170   39.5108   21.7708 H     1318  UNL1318     0.1146
   5271 H          22.4843   39.9098   20.7090 H     1318  UNL1318     0.1146
   5272 H          22.2462   38.3501   21.1086 H     1318  UNL1318     0.1146
   5273 N          24.2904   -0.2567   -0.2269 N.3   1319  UNL1319    -0.3437
   5274 H          23.8487    0.0339    0.6442 H     1319  UNL1319     0.1146
   5275 H          25.0160    0.4329   -0.4176 H     1319  UNL1319     0.1146
   5276 H          24.7779   -1.1268   -0.0180 H     1319  UNL1319     0.1146
   5277 N          24.2904   -0.2567    2.4140 N.3   1320  UNL1320    -0.3437
   5278 H          23.8487    0.0339    3.2851 H     1320  UNL1320     0.1146
   5279 H          25.0160    0.4329    2.2233 H     1320  UNL1320     0.1146
   5280 H          24.7779   -1.1268    2.6229 H     1320  UNL1320     0.1146
   5281 N          24.2904   -0.2567    5.0548 N.3   1321  UNL1321    -0.3437
   5282 H          23.8487    0.0339    5.9259 H     1321  UNL1321     0.1146
   5283 H          25.0160    0.4329    4.8641 H     1321  UNL1321     0.1146
   5284 H          24.7779   -1.1268    5.2637 H     1321  UNL1321     0.1146
   5285 N          24.2904   -0.2567    7.6956 N.3   1322  UNL1322    -0.3437
   5286 H          23.8487    0.0339    8.5667 H     1322  UNL1322     0.1146
   5287 H          25.0160    0.4329    7.5049 H     1322  UNL1322     0.1146
   5288 H          24.7779   -1.1268    7.9045 H     1322  UNL1322     0.1146
   5289 N          24.2904   -0.2567   10.3364 N.3   1323  UNL1323    -0.3437
   5290 H          23.8487    0.0339   11.2075 H     1323  UNL1323     0.1146
   5291 H          25.0160    0.4329   10.1457 H     1323  UNL1323     0.1146
   5292 H          24.7779   -1.1268   10.5453 H     1323  UNL1323     0.1146
   5293 N          24.2904   -0.2567   12.9773 N.3   1324  UNL1324    -0.3437
   5294 H          23.8487    0.0339   13.8484 H     1324  UNL1324     0.1146
   5295 H          25.0160    0.4329   12.7866 H     1324  UNL1324     0.1146
   5296 H          24.7779   -1.1268   13.1862 H     1324  UNL1324     0.1146
   5297 N          24.2904   -0.2567   15.6181 N.3   1325  UNL1325    -0.3437
   5298 H          23.8487    0.0339   16.4892 H     1325  UNL1325     0.1146
   5299 H          25.0160    0.4329   15.4274 H     1325  UNL1325     0.1146
   5300 H          24.7779   -1.1268   15.8270 H     1325  UNL1325     0.1146
   5301 N          24.2904   -0.2567   18.2589 N.3   1326  UNL1326    -0.3437
   5302 H          23.8487    0.0339   19.1300 H     1326  UNL1326     0.1146
   5303 H          25.0160    0.4329   18.0682 H     1326  UNL1326     0.1146
   5304 H          24.7779   -1.1268   18.4678 H     1326  UNL1326     0.1146
   5305 N          24.2904   -0.2567   20.8997 N.3   1327  UNL1327    -0.3437
   5306 H          23.8487    0.0339   21.7708 H     1327  UNL1327     0.1146
   5307 H          25.0160    0.4329   20.7090 H     1327  UNL1327     0.1146
   5308 H          24.7779   -1.1268   21.1086 H     1327  UNL1327     0.1146
   5309 N          24.2904    2.5631   -0.2269 N.3   1328  UNL1328    -0.3437
   5310 H          23.8487    2.8537    0.6442 H     1328  UNL1328     0.1146
   5311 H          25.0160    3.2527   -0.4176 H     1328  UNL1328     0.1146
   5312 H          24.7779    1.6930   -0.0180 H     1328  UNL1328     0.1146
   5313 N          24.2904    2.5631    2.4140 N.3   1329  UNL1329    -0.3437
   5314 H          23.8487    2.8537    3.2851 H     1329  UNL1329     0.1146
   5315 H          25.0160    3.2527    2.2233 H     1329  UNL1329     0.1146
   5316 H          24.7779    1.6930    2.6229 H     1329  UNL1329     0.1146
   5317 N          24.2904    2.5631    5.0548 N.3   1330  UNL1330    -0.3437
   5318 H          23.8487    2.8537    5.9259 H     1330  UNL1330     0.1146
   5319 H          25.0160    3.2527    4.8641 H     1330  UNL1330     0.1146
   5320 H          24.7779    1.6930    5.2637 H     1330  UNL1330     0.1146
   5321 N          24.2904    2.5631    7.6956 N.3   1331  UNL1331    -0.3437
   5322 H          23.8487    2.8537    8.5667 H     1331  UNL1331     0.1146
   5323 H          25.0160    3.2527    7.5049 H     1331  UNL1331     0.1146
   5324 H          24.7779    1.6930    7.9045 H     1331  UNL1331     0.1146
   5325 N          24.2904    2.5631   10.3364 N.3   1332  UNL1332    -0.3437
   5326 H          23.8487    2.8537   11.2075 H     1332  UNL1332     0.1146
   5327 H          25.0160    3.2527   10.1457 H     1332  UNL1332     0.1146
   5328 H          24.7779    1.6930   10.5453 H     1332  UNL1332     0.1146
   5329 N          24.2904    2.5631   12.9773 N.3   1333  UNL1333    -0.3437
   5330 H          23.8487    2.8537   13.8484 H     1333  UNL1333     0.1146
   5331 H          25.0160    3.2527   12.7866 H     1333  UNL1333     0.1146
   5332 H          24.7779    1.6930   13.1862 H     1333  UNL1333     0.1146
   5333 N          24.2904    2.5631   15.6181 N.3   1334  UNL1334    -0.3437
   5334 H          23.8487    2.8537   16.4892 H     1334  UNL1334     0.1146
   5335 H          25.0160    3.2527   15.4274 H     1334  UNL1334     0.1146
   5336 H          24.7779    1.6930   15.8270 H     1334  UNL1334     0.1146
   5337 N          24.2904    2.5631   18.2589 N.3   1335  UNL1335    -0.3437
   5338 H          23.8487    2.8537   19.1300 H     1335  UNL1335     0.1146
   5339 H          25.0160    3.2527   18.0682 H     1335  UNL1335     0.1146
   5340 H          24.7779    1.6930   18.4678 H     1335  UNL1335     0.1146
   5341 N          24.2904    2.7852   21.2331 N.3   1336  UNL1336    -0.3437
   5342 H          23.8487    1.9134   20.9446 H     1336  UNL1336     0.1146
   5343 H          25.0160    2.5253   21.8997 H     1336  UNL1336     0.1146
   5344 H          24.7779    3.1385   20.4110 H     1336  UNL1336     0.1146
   5345 N          24.2904    5.6050    0.1065 N.3   1337  UNL1337    -0.3437
   5346 H          23.8487    4.7332   -0.1820 H     1337  UNL1337     0.1146
   5347 H          25.0160    5.3450    0.7731 H     1337  UNL1337     0.1146
   5348 H          24.7779    5.9583   -0.7156 H     1337  UNL1337     0.1146
   5349 N          24.2904    5.6050    2.7473 N.3   1338  UNL1338    -0.3437
   5350 H          23.8487    4.7332    2.4588 H     1338  UNL1338     0.1146
   5351 H          25.0160    5.3450    3.4139 H     1338  UNL1338     0.1146
   5352 H          24.7779    5.9583    1.9252 H     1338  UNL1338     0.1146
   5353 N          24.2904    5.6050    5.3881 N.3   1339  UNL1339    -0.3437
   5354 H          23.8487    4.7332    5.0996 H     1339  UNL1339     0.1146
   5355 H          25.0160    5.3450    6.0547 H     1339  UNL1339     0.1146
   5356 H          24.7779    5.9583    4.5660 H     1339  UNL1339     0.1146
   5357 N          24.2904    5.6050    8.0289 N.3   1340  UNL1340    -0.3437
   5358 H          23.8487    4.7332    7.7404 H     1340  UNL1340     0.1146
   5359 H          25.0160    5.3450    8.6955 H     1340  UNL1340     0.1146
   5360 H          24.7779    5.9583    7.2068 H     1340  UNL1340     0.1146
   5361 N          24.2904    5.3829   10.3364 N.3   1341  UNL1341    -0.3437
   5362 H          23.8487    5.6735   11.2075 H     1341  UNL1341     0.1146
   5363 H          25.0160    6.0725   10.1457 H     1341  UNL1341     0.1146
   5364 H          24.7779    4.5128   10.5453 H     1341  UNL1341     0.1146
   5365 N          24.2904    5.3829   12.9773 N.3   1342  UNL1342    -0.3437
   5366 H          23.8487    5.6735   13.8484 H     1342  UNL1342     0.1146
   5367 H          25.0160    6.0725   12.7866 H     1342  UNL1342     0.1146
   5368 H          24.7779    4.5128   13.1862 H     1342  UNL1342     0.1146
   5369 N          24.2904    5.3829   15.6181 N.3   1343  UNL1343    -0.3437
   5370 H          23.8487    5.6735   16.4892 H     1343  UNL1343     0.1146
   5371 H          25.0160    6.0725   15.4274 H     1343  UNL1343     0.1146
   5372 H          24.7779    4.5128   15.8270 H     1343  UNL1343     0.1146
   5373 N          24.2904    5.6050   18.5922 N.3   1344  UNL1344    -0.3437
   5374 H          23.8487    4.7332   18.3037 H     1344  UNL1344     0.1146
   5375 H          25.0160    5.3450   19.2588 H     1344  UNL1344     0.1146
   5376 H          24.7779    5.9583   17.7701 H     1344  UNL1344     0.1146
   5377 N          24.2904    5.3829   20.8997 N.3   1345  UNL1345    -0.3437
   5378 H          23.8487    5.6735   21.7708 H     1345  UNL1345     0.1146
   5379 H          25.0160    6.0725   20.7090 H     1345  UNL1345     0.1146
   5380 H          24.7779    4.5128   21.1086 H     1345  UNL1345     0.1146
   5381 N          24.2904    8.2026   -0.2269 N.3   1346  UNL1346    -0.3437
   5382 H          23.8487    8.4932    0.6442 H     1346  UNL1346     0.1146
   5383 H          25.0160    8.8922   -0.4176 H     1346  UNL1346     0.1146
   5384 H          24.7779    7.3325   -0.0180 H     1346  UNL1346     0.1146
   5385 N          24.2904    8.2026    2.4140 N.3   1347  UNL1347    -0.3437
   5386 H          23.8487    8.4932    3.2851 H     1347  UNL1347     0.1146
   5387 H          25.0160    8.8922    2.2233 H     1347  UNL1347     0.1146
   5388 H          24.7779    7.3325    2.6229 H     1347  UNL1347     0.1146
   5389 N          24.2904    8.2026    5.0548 N.3   1348  UNL1348    -0.3437
   5390 H          23.8487    8.4932    5.9259 H     1348  UNL1348     0.1146
   5391 H          25.0160    8.8922    4.8641 H     1348  UNL1348     0.1146
   5392 H          24.7779    7.3325    5.2637 H     1348  UNL1348     0.1146
   5393 N          24.2904    8.2026    7.6956 N.3   1349  UNL1349    -0.3437
   5394 H          23.8487    8.4932    8.5667 H     1349  UNL1349     0.1146
   5395 H          25.0160    8.8922    7.5049 H     1349  UNL1349     0.1146
   5396 H          24.7779    7.3325    7.9045 H     1349  UNL1349     0.1146
   5397 N          22.2904    8.2026   10.3364 N.3   1350  UNL1350    -0.3437
   5398 H          21.8487    8.4932   11.2075 H     1350  UNL1350     0.1146
   5399 H          23.0160    8.8922   10.1457 H     1350  UNL1350     0.1146
   5400 H          22.7779    7.3325   10.5453 H     1350  UNL1350     0.1146
   5401 N          24.4206    8.2026   13.4871 N.3   1351  UNL1351    -0.3437
   5402 H          25.3828    8.4932   13.3197 H     1351  UNL1351     0.1146
   5403 H          23.8336    8.8922   13.0199 H     1351  UNL1351     0.1146
   5404 H          24.2962    7.3325   12.9716 H     1351  UNL1351     0.1146
   5405 N          24.2904    8.2026   15.6181 N.3   1352  UNL1352    -0.3437
   5406 H          23.8487    8.4932   16.4892 H     1352  UNL1352     0.1146
   5407 H          25.0160    8.8922   15.4274 H     1352  UNL1352     0.1146
   5408 H          24.7779    7.3325   15.8270 H     1352  UNL1352     0.1146
   5409 N          24.2904    8.2026   18.2589 N.3   1353  UNL1353    -0.3437
   5410 H          23.8487    8.4932   19.1300 H     1353  UNL1353     0.1146
   5411 H          25.0160    8.8922   18.0682 H     1353  UNL1353     0.1146
   5412 H          24.7779    7.3325   18.4678 H     1353  UNL1353     0.1146
   5413 N          24.2904    8.2026   20.8997 N.3   1354  UNL1354    -0.3437
   5414 H          23.8487    8.4932   21.7708 H     1354  UNL1354     0.1146
   5415 H          25.0160    8.8922   20.7090 H     1354  UNL1354     0.1146
   5416 H          24.7779    7.3325   21.1086 H     1354  UNL1354     0.1146
   5417 N          24.2904   11.2445    0.1065 N.3   1355  UNL1355    -0.3437
   5418 H          23.8487   10.3727   -0.1820 H     1355  UNL1355     0.1146
   5419 H          25.0160   10.9846    0.7731 H     1355  UNL1355     0.1146
   5420 H          24.7779   11.5979   -0.7156 H     1355  UNL1355     0.1146
   5421 N          22.4206   11.0224    2.9238 N.3   1356  UNL1356    -0.3437
   5422 H          23.3828   11.3130    2.7564 H     1356  UNL1356     0.1146
   5423 H          21.8336   11.7120    2.4566 H     1356  UNL1356     0.1146
   5424 H          22.2962   10.1523    2.4083 H     1356  UNL1356     0.1146
   5425 N          24.2904   11.2445    5.3881 N.3   1357  UNL1357    -0.3437
   5426 H          23.8487   10.3727    5.0996 H     1357  UNL1357     0.1146
   5427 H          25.0160   10.9846    6.0547 H     1357  UNL1357     0.1146
   5428 H          24.7779   11.5979    4.5660 H     1357  UNL1357     0.1146
   5429 N          24.2904   11.2445    8.0289 N.3   1358  UNL1358    -0.3437
   5430 H          23.8487   10.3727    7.7404 H     1358  UNL1358     0.1146
   5431 H          25.0160   10.9846    8.6955 H     1358  UNL1358     0.1146
   5432 H          24.7779   11.5979    7.2068 H     1358  UNL1358     0.1146
   5433 N          24.2904   11.0224   10.3364 N.3   1359  UNL1359    -0.3437
   5434 H          23.8487   11.3130   11.2075 H     1359  UNL1359     0.1146
   5435 H          25.0160   11.7120   10.1457 H     1359  UNL1359     0.1146
   5436 H          24.7779   10.1523   10.5453 H     1359  UNL1359     0.1146
   5437 N          24.2904   11.0224   12.9773 N.3   1360  UNL1360    -0.3437
   5438 H          23.8487   11.3130   13.8484 H     1360  UNL1360     0.1146
   5439 H          25.0160   11.7120   12.7866 H     1360  UNL1360     0.1146
   5440 H          24.7779   10.1523   13.1862 H     1360  UNL1360     0.1146
   5441 N          24.2904   10.8883   15.9955 N.3   1361  UNL1361    -0.3437
   5442 H          23.8487   11.4123   15.2414 H     1361  UNL1361     0.1146
   5443 H          25.0160   10.3228   15.5572 H     1361  UNL1361     0.1146
   5444 H          24.7779   11.5764   16.5676 H     1361  UNL1361     0.1146
   5445 N          24.2904   11.2445   18.5922 N.3   1362  UNL1362    -0.3437
   5446 H          23.8487   10.3727   18.3037 H     1362  UNL1362     0.1146
   5447 H          25.0160   10.9846   19.2588 H     1362  UNL1362     0.1146
   5448 H          24.7779   11.5979   17.7701 H     1362  UNL1362     0.1146
   5449 N          24.2904   11.2445   21.2331 N.3   1363  UNL1363    -0.3437
   5450 H          23.8487   10.3727   20.9446 H     1363  UNL1363     0.1146
   5451 H          25.0160   10.9846   21.8997 H     1363  UNL1363     0.1146
   5452 H          24.7779   11.5979   20.4110 H     1363  UNL1363     0.1146
   5453 N          24.2904   14.0643    0.1065 N.3   1364  UNL1364    -0.3437
   5454 H          23.8487   13.1925   -0.1820 H     1364  UNL1364     0.1146
   5455 H          25.0160   13.8044    0.7731 H     1364  UNL1364     0.1146
   5456 H          24.7779   14.4176   -0.7156 H     1364  UNL1364     0.1146
   5457 N          24.2904   14.0643    2.7473 N.3   1365  UNL1365    -0.3437
   5458 H          23.8487   13.1925    2.4588 H     1365  UNL1365     0.1146
   5459 H          25.0160   13.8044    3.4139 H     1365  UNL1365     0.1146
   5460 H          24.7779   14.4176    1.9252 H     1365  UNL1365     0.1146
   5461 N          24.2904   14.0643    5.3881 N.3   1366  UNL1366    -0.3437
   5462 H          23.8487   13.1925    5.0996 H     1366  UNL1366     0.1146
   5463 H          25.0160   13.8044    6.0547 H     1366  UNL1366     0.1146
   5464 H          24.7779   14.4176    4.5660 H     1366  UNL1366     0.1146
   5465 N          24.2904   14.0643    8.0289 N.3   1367  UNL1367    -0.3437
   5466 H          23.8487   13.1925    7.7404 H     1367  UNL1367     0.1146
   5467 H          25.0160   13.8044    8.6955 H     1367  UNL1367     0.1146
   5468 H          24.7779   14.4176    7.2068 H     1367  UNL1367     0.1146
   5469 N          24.2904   13.8422   10.3364 N.3   1368  UNL1368    -0.3437
   5470 H          23.8487   14.1328   11.2075 H     1368  UNL1368     0.1146
   5471 H          25.0160   14.5318   10.1457 H     1368  UNL1368     0.1146
   5472 H          24.7779   12.9721   10.5453 H     1368  UNL1368     0.1146
   5473 N          22.2904   13.8422   12.9773 N.3   1369  UNL1369    -0.3437
   5474 H          21.8487   14.1328   13.8484 H     1369  UNL1369     0.1146
   5475 H          23.0160   14.5318   12.7866 H     1369  UNL1369     0.1146
   5476 H          22.7779   12.9721   13.1862 H     1369  UNL1369     0.1146
   5477 N          22.2904   13.8422   15.6181 N.3   1370  UNL1370    -0.3437
   5478 H          21.8487   14.1328   16.4892 H     1370  UNL1370     0.1146
   5479 H          23.0160   14.5318   15.4274 H     1370  UNL1370     0.1146
   5480 H          22.7779   12.9721   15.8270 H     1370  UNL1370     0.1146
   5481 N          24.2904   14.0643   18.5922 N.3   1371  UNL1371    -0.3437
   5482 H          23.8487   13.1925   18.3037 H     1371  UNL1371     0.1146
   5483 H          25.0160   13.8044   19.2588 H     1371  UNL1371     0.1146
   5484 H          24.7779   14.4176   17.7701 H     1371  UNL1371     0.1146
   5485 N          24.2904   14.0643   21.2331 N.3   1372  UNL1372    -0.3437
   5486 H          23.8487   13.1925   20.9446 H     1372  UNL1372     0.1146
   5487 H          25.0160   13.8044   21.8997 H     1372  UNL1372     0.1146
   5488 H          24.7779   14.4176   20.4110 H     1372  UNL1372     0.1146
   5489 N          24.2904   16.6619    0.4140 N.3   1373  UNL1373    -0.3437
   5490 H          23.8487   16.9525    1.2851 H     1373  UNL1373     0.1146
   5491 H          25.0160   17.3516    0.2233 H     1373  UNL1373     0.1146
   5492 H          24.7779   15.7919    0.6229 H     1373  UNL1373     0.1146
   5493 N          24.2904   16.6619    3.0548 N.3   1374  UNL1374    -0.3437
   5494 H          23.8487   16.9525    3.9259 H     1374  UNL1374     0.1146
   5495 H          25.0160   17.3516    2.8641 H     1374  UNL1374     0.1146
   5496 H          24.7779   15.7919    3.2637 H     1374  UNL1374     0.1146
   5497 N          24.2904   16.6619    5.6956 N.3   1375  UNL1375    -0.3437
   5498 H          23.8487   16.9525    6.5667 H     1375  UNL1375     0.1146
   5499 H          25.0160   17.3516    5.5049 H     1375  UNL1375     0.1146
   5500 H          24.7779   15.7919    5.9045 H     1375  UNL1375     0.1146
   5501 N          24.2904   16.6619   10.3364 N.3   1376  UNL1376    -0.3437
   5502 H          23.8487   16.9525   11.2075 H     1376  UNL1376     0.1146
   5503 H          25.0160   17.3516   10.1457 H     1376  UNL1376     0.1146
   5504 H          24.7779   15.7919   10.5453 H     1376  UNL1376     0.1146
   5505 N          24.2904   16.6619   12.9773 N.3   1377  UNL1377    -0.3437
   5506 H          23.8487   16.9525   13.8484 H     1377  UNL1377     0.1146
   5507 H          25.0160   17.3516   12.7866 H     1377  UNL1377     0.1146
   5508 H          24.7779   15.7919   13.1862 H     1377  UNL1377     0.1146
   5509 N          24.2904   16.6619   15.6181 N.3   1378  UNL1378    -0.3437
   5510 H          23.8487   16.9525   16.4892 H     1378  UNL1378     0.1146
   5511 H          25.0160   17.3516   15.4274 H     1378  UNL1378     0.1146
   5512 H          24.7779   15.7919   15.8270 H     1378  UNL1378     0.1146
   5513 N          24.2904   16.8841   18.5922 N.3   1379  UNL1379    -0.3437
   5514 H          23.8487   16.0123   18.3037 H     1379  UNL1379     0.1146
   5515 H          25.0160   16.6241   19.2588 H     1379  UNL1379     0.1146
   5516 H          24.7779   17.2374   17.7701 H     1379  UNL1379     0.1146
   5517 N          24.2904   16.8841   21.2331 N.3   1380  UNL1380    -0.3437
   5518 H          23.8487   16.0123   20.9446 H     1380  UNL1380     0.1146
   5519 H          25.0160   16.6241   21.8997 H     1380  UNL1380     0.1146
   5520 H          24.7779   17.2374   20.4110 H     1380  UNL1380     0.1146
   5521 N          24.2904   19.7038    0.1065 N.3   1381  UNL1381    -0.3437
   5522 H          23.8487   18.8320   -0.1820 H     1381  UNL1381     0.1146
   5523 H          25.0160   19.4439    0.7731 H     1381  UNL1381     0.1146
   5524 H          24.7779   20.0572   -0.7156 H     1381  UNL1381     0.1146
   5525 N          24.2904   19.7038    2.7473 N.3   1382  UNL1382    -0.3437
   5526 H          23.8487   18.8320    2.4588 H     1382  UNL1382     0.1146
   5527 H          25.0160   19.4439    3.4139 H     1382  UNL1382     0.1146
   5528 H          24.7779   20.0572    1.9252 H     1382  UNL1382     0.1146
   5529 N          24.2904   19.7038    5.3881 N.3   1383  UNL1383    -0.3437
   5530 H          23.8487   18.8320    5.0996 H     1383  UNL1383     0.1146
   5531 H          25.0160   19.4439    6.0547 H     1383  UNL1383     0.1146
   5532 H          24.7779   20.0572    4.5660 H     1383  UNL1383     0.1146
   5533 N          24.2904   19.7038    8.0289 N.3   1384  UNL1384    -0.3437
   5534 H          23.8487   18.8320    7.7404 H     1384  UNL1384     0.1146
   5535 H          25.0160   19.4439    8.6955 H     1384  UNL1384     0.1146
   5536 H          24.7779   20.0572    7.2068 H     1384  UNL1384     0.1146
   5537 N          24.2904   19.4817   10.3364 N.3   1385  UNL1385    -0.3437
   5538 H          23.8487   19.7723   11.2075 H     1385  UNL1385     0.1146
   5539 H          25.0160   20.1713   10.1457 H     1385  UNL1385     0.1146
   5540 H          24.7779   18.6116   10.5453 H     1385  UNL1385     0.1146
   5541 N          24.2904   19.3476   13.3547 N.3   1386  UNL1386    -0.3437
   5542 H          23.8487   19.8716   12.6006 H     1386  UNL1386     0.1146
   5543 H          25.0160   18.7821   12.9163 H     1386  UNL1386     0.1146
   5544 H          24.7779   20.0357   13.9268 H     1386  UNL1386     0.1146
   5545 N          24.2904   19.7038   15.9514 N.3   1387  UNL1387    -0.3437
   5546 H          23.8487   18.8320   15.6629 H     1387  UNL1387     0.1146
   5547 H          25.0160   19.4439   16.6180 H     1387  UNL1387     0.1146
   5548 H          24.7779   20.0572   15.1293 H     1387  UNL1387     0.1146
   5549 N          24.2904   19.7038   18.5922 N.3   1388  UNL1388    -0.3437
   5550 H          23.8487   18.8320   18.3037 H     1388  UNL1388     0.1146
   5551 H          25.0160   19.4439   19.2588 H     1388  UNL1388     0.1146
   5552 H          24.7779   20.0572   17.7701 H     1388  UNL1388     0.1146
   5553 N          24.2904   19.7038   21.2331 N.3   1389  UNL1389    -0.3437
   5554 H          23.8487   18.8320   20.9446 H     1389  UNL1389     0.1146
   5555 H          25.0160   19.4439   21.8997 H     1389  UNL1389     0.1146
   5556 H          24.7779   20.0572   20.4110 H     1389  UNL1389     0.1146
   5557 N          22.2689   22.1287    2.6722 N.3   1390  UNL1390    -0.3437
   5558 H          22.3273   22.7870    3.4479 H     1390  UNL1390     0.1146
   5559 H          22.1440   22.6935    1.8333 H     1390  UNL1390     0.1146
   5560 H          23.1929   21.7068    2.5917 H     1390  UNL1390     0.1146
   5561 N          24.2904   22.5236    5.3881 N.3   1391  UNL1391    -0.3437
   5562 H          23.8487   21.6518    5.0996 H     1391  UNL1391     0.1146
   5563 H          25.0160   22.2637    6.0547 H     1391  UNL1391     0.1146
   5564 H          24.7779   22.8770    4.5660 H     1391  UNL1391     0.1146
   5565 N          24.2904   22.5236    8.0289 N.3   1392  UNL1392    -0.3437
   5566 H          23.8487   21.6518    7.7404 H     1392  UNL1392     0.1146
   5567 H          25.0160   22.2637    8.6955 H     1392  UNL1392     0.1146
   5568 H          24.7779   22.8770    7.2068 H     1392  UNL1392     0.1146
   5569 N          24.2904   22.3015   10.3364 N.3   1393  UNL1393    -0.3437
   5570 H          23.8487   22.5921   11.2075 H     1393  UNL1393     0.1146
   5571 H          25.0160   22.9911   10.1457 H     1393  UNL1393     0.1146
   5572 H          24.7779   21.4314   10.5453 H     1393  UNL1393     0.1146
   5573 N          24.2904   22.3015   12.9773 N.3   1394  UNL1394    -0.3437
   5574 H          23.8487   22.5921   13.8484 H     1394  UNL1394     0.1146
   5575 H          25.0160   22.9911   12.7866 H     1394  UNL1394     0.1146
   5576 H          24.7779   21.4314   13.1862 H     1394  UNL1394     0.1146
   5577 N          24.2904   22.3015   15.6181 N.3   1395  UNL1395    -0.3437
   5578 H          23.8487   22.5921   16.4892 H     1395  UNL1395     0.1146
   5579 H          25.0160   22.9911   15.4274 H     1395  UNL1395     0.1146
   5580 H          24.7779   21.4314   15.8270 H     1395  UNL1395     0.1146
   5581 N          24.2904   22.5236   18.5922 N.3   1396  UNL1396    -0.3437
   5582 H          23.8487   21.6518   18.3037 H     1396  UNL1396     0.1146
   5583 H          25.0160   22.2637   19.2588 H     1396  UNL1396     0.1146
   5584 H          24.7779   22.8770   17.7701 H     1396  UNL1396     0.1146
   5585 N          22.4206   22.3015   21.4096 N.3   1397  UNL1397    -0.3437
   5586 H          23.3828   22.5921   21.2422 H     1397  UNL1397     0.1146
   5587 H          21.8336   22.9911   20.9424 H     1397  UNL1397     0.1146
   5588 H          22.2962   21.4314   20.8940 H     1397  UNL1397     0.1146
   5589 N          24.2904   25.3434    0.1065 N.3   1398  UNL1398    -0.3437
   5590 H          23.8487   24.4716   -0.1820 H     1398  UNL1398     0.1146
   5591 H          25.0160   25.0835    0.7731 H     1398  UNL1398     0.1146
   5592 H          24.7779   25.6967   -0.7156 H     1398  UNL1398     0.1146
   5593 N          24.2904   25.3434    2.7473 N.3   1399  UNL1399    -0.3437
   5594 H          23.8487   24.4716    2.4588 H     1399  UNL1399     0.1146
   5595 H          25.0160   25.0835    3.4139 H     1399  UNL1399     0.1146
   5596 H          24.7779   25.6967    1.9252 H     1399  UNL1399     0.1146
   5597 N          24.2904   25.3434    5.3881 N.3   1400  UNL1400    -0.3437
   5598 H          23.8487   24.4716    5.0996 H     1400  UNL1400     0.1146
   5599 H          25.0160   25.0835    6.0547 H     1400  UNL1400     0.1146
   5600 H          24.7779   25.6967    4.5660 H     1400  UNL1400     0.1146
   5601 N          24.2904   25.3434    8.0289 N.3   1401  UNL1401    -0.3437
   5602 H          23.8487   24.4716    7.7404 H     1401  UNL1401     0.1146
   5603 H          25.0160   25.0835    8.6955 H     1401  UNL1401     0.1146
   5604 H          24.7779   25.6967    7.2068 H     1401  UNL1401     0.1146
   5605 N          24.2540   25.0284   10.4163 N.3   1402  UNL1402    -0.3437
   5606 H          24.3817   24.6452   11.3518 H     1402  UNL1402     0.1146
   5607 H          24.1589   26.0359   10.5360 H     1402  UNL1402     0.1146
   5608 H          25.1386   24.8856    9.9310 H     1402  UNL1402     0.1146
   5609 N          24.2904   24.9872   13.3547 N.3   1403  UNL1403    -0.3437
   5610 H          23.8487   25.5111   12.6006 H     1403  UNL1403     0.1146
   5611 H          25.0160   24.4217   12.9163 H     1403  UNL1403     0.1146
   5612 H          24.7779   25.6752   13.9268 H     1403  UNL1403     0.1146
   5613 N          24.2904   25.3434   15.9514 N.3   1404  UNL1404    -0.3437
   5614 H          23.8487   24.4716   15.6629 H     1404  UNL1404     0.1146
   5615 H          25.0160   25.0835   16.6180 H     1404  UNL1404     0.1146
   5616 H          24.7779   25.6967   15.1293 H     1404  UNL1404     0.1146
   5617 N          24.2904   25.3434   18.5922 N.3   1405  UNL1405    -0.3437
   5618 H          23.8487   24.4716   18.3037 H     1405  UNL1405     0.1146
   5619 H          25.0160   25.0835   19.2588 H     1405  UNL1405     0.1146
   5620 H          24.7779   25.6967   17.7701 H     1405  UNL1405     0.1146
   5621 N          24.2904   25.1213   20.8997 N.3   1406  UNL1406    -0.3437
   5622 H          23.8487   25.4119   21.7708 H     1406  UNL1406     0.1146
   5623 H          25.0160   25.8109   20.7090 H     1406  UNL1406     0.1146
   5624 H          24.7779   24.2512   21.1086 H     1406  UNL1406     0.1146
   5625 N          24.2904   28.1632    0.1065 N.3   1407  UNL1407    -0.3437
   5626 H          23.8487   27.2914   -0.1820 H     1407  UNL1407     0.1146
   5627 H          25.0160   27.9032    0.7731 H     1407  UNL1407     0.1146
   5628 H          24.7779   28.5165   -0.7156 H     1407  UNL1407     0.1146
   5629 N          24.2904   28.1632    2.7473 N.3   1408  UNL1408    -0.3437
   5630 H          23.8487   27.2914    2.4588 H     1408  UNL1408     0.1146
   5631 H          25.0160   27.9032    3.4139 H     1408  UNL1408     0.1146
   5632 H          24.7779   28.5165    1.9252 H     1408  UNL1408     0.1146
   5633 N          24.2904   28.1632    5.3881 N.3   1409  UNL1409    -0.3437
   5634 H          23.8487   27.2914    5.0996 H     1409  UNL1409     0.1146
   5635 H          25.0160   27.9032    6.0547 H     1409  UNL1409     0.1146
   5636 H          24.7779   28.5165    4.5660 H     1409  UNL1409     0.1146
   5637 N          24.2904   28.1632    8.0289 N.3   1410  UNL1410    -0.3437
   5638 H          23.8487   27.2914    7.7404 H     1410  UNL1410     0.1146
   5639 H          25.0160   27.9032    8.6955 H     1410  UNL1410     0.1146
   5640 H          24.7779   28.5165    7.2068 H     1410  UNL1410     0.1146
   5641 N          24.2904   27.9410   10.3364 N.3   1411  UNL1411    -0.3437
   5642 H          23.8487   28.2316   11.2075 H     1411  UNL1411     0.1146
   5643 H          25.0160   28.6306   10.1457 H     1411  UNL1411     0.1146
   5644 H          24.7779   27.0709   10.5453 H     1411  UNL1411     0.1146
   5645 N          24.2904   28.1632   13.3106 N.3   1412  UNL1412    -0.3437
   5646 H          23.8487   27.2914   13.0221 H     1412  UNL1412     0.1146
   5647 H          25.0160   27.9032   13.9772 H     1412  UNL1412     0.1146
   5648 H          24.7779   28.5165   12.4885 H     1412  UNL1412     0.1146
   5649 N          24.2904   28.1632   15.9514 N.3   1413  UNL1413    -0.3437
   5650 H          23.8487   27.2914   15.6629 H     1413  UNL1413     0.1146
   5651 H          25.0160   27.9032   16.6180 H     1413  UNL1413     0.1146
   5652 H          24.7779   28.5165   15.1293 H     1413  UNL1413     0.1146
   5653 N          24.2904   28.1632   18.5922 N.3   1414  UNL1414    -0.3437
   5654 H          23.8487   27.2914   18.3037 H     1414  UNL1414     0.1146
   5655 H          25.0160   27.9032   19.2588 H     1414  UNL1414     0.1146
   5656 H          24.7779   28.5165   17.7701 H     1414  UNL1414     0.1146
   5657 N          24.2904   28.1632   21.2331 N.3   1415  UNL1415    -0.3437
   5658 H          23.8487   27.2914   20.9446 H     1415  UNL1415     0.1146
   5659 H          25.0160   27.9032   21.8997 H     1415  UNL1415     0.1146
   5660 H          24.7779   28.5165   20.4110 H     1415  UNL1415     0.1146
   5661 N          24.2904   30.7608   -0.2269 N.3   1416  UNL1416    -0.3437
   5662 H          23.8487   31.0514    0.6442 H     1416  UNL1416     0.1146
   5663 H          25.0160   31.4504   -0.4176 H     1416  UNL1416     0.1146
   5664 H          24.7779   29.8907   -0.0180 H     1416  UNL1416     0.1146
   5665 N          24.2904   30.7608    2.4140 N.3   1417  UNL1417    -0.3437
   5666 H          23.8487   31.0514    3.2851 H     1417  UNL1417     0.1146
   5667 H          25.0160   31.4504    2.2233 H     1417  UNL1417     0.1146
   5668 H          24.7779   29.8907    2.6229 H     1417  UNL1417     0.1146
   5669 N          24.2904   30.7608    5.0548 N.3   1418  UNL1418    -0.3437
   5670 H          23.8487   31.0514    5.9259 H     1418  UNL1418     0.1146
   5671 H          25.0160   31.4504    4.8641 H     1418  UNL1418     0.1146
   5672 H          24.7779   29.8907    5.2637 H     1418  UNL1418     0.1146
   5673 N          24.2904   30.7608    7.6956 N.3   1419  UNL1419    -0.3437
   5674 H          23.8487   31.0514    8.5667 H     1419  UNL1419     0.1146
   5675 H          25.0160   31.4504    7.5049 H     1419  UNL1419     0.1146
   5676 H          24.7779   29.8907    7.9045 H     1419  UNL1419     0.1146
   5677 N          22.2904   30.7608   10.3364 N.3   1420  UNL1420    -0.3437
   5678 H          21.8487   31.0514   11.2075 H     1420  UNL1420     0.1146
   5679 H          23.0160   31.4504   10.1457 H     1420  UNL1420     0.1146
   5680 H          22.7779   29.8907   10.5453 H     1420  UNL1420     0.1146
   5681 N          24.2904   30.7608   12.9773 N.3   1421  UNL1421    -0.3437
   5682 H          23.8487   31.0514   13.8484 H     1421  UNL1421     0.1146
   5683 H          25.0160   31.4504   12.7866 H     1421  UNL1421     0.1146
   5684 H          24.7779   29.8907   13.1862 H     1421  UNL1421     0.1146
   5685 N          24.2904   30.7608   15.6181 N.3   1422  UNL1422    -0.3437
   5686 H          23.8487   31.0514   16.4892 H     1422  UNL1422     0.1146
   5687 H          25.0160   31.4504   15.4274 H     1422  UNL1422     0.1146
   5688 H          24.7779   29.8907   15.8270 H     1422  UNL1422     0.1146
   5689 N          24.2904   30.7608   18.2589 N.3   1423  UNL1423    -0.3437
   5690 H          23.8487   31.0514   19.1300 H     1423  UNL1423     0.1146
   5691 H          25.0160   31.4504   18.0682 H     1423  UNL1423     0.1146
   5692 H          24.7779   29.8907   18.4678 H     1423  UNL1423     0.1146
   5693 N          24.2904   30.7608   20.8997 N.3   1424  UNL1424    -0.3437
   5694 H          23.8487   31.0514   21.7708 H     1424  UNL1424     0.1146
   5695 H          25.0160   31.4504   20.7090 H     1424  UNL1424     0.1146
   5696 H          24.7779   29.8907   21.1086 H     1424  UNL1424     0.1146
   5697 N          24.2904   33.5806   -0.2269 N.3   1425  UNL1425    -0.3437
   5698 H          23.8487   33.8712    0.6442 H     1425  UNL1425     0.1146
   5699 H          25.0160   34.2702   -0.4176 H     1425  UNL1425     0.1146
   5700 H          24.7779   32.7105   -0.0180 H     1425  UNL1425     0.1146
   5701 N          24.2904   33.5806    2.4140 N.3   1426  UNL1426    -0.3437
   5702 H          23.8487   33.8712    3.2851 H     1426  UNL1426     0.1146
   5703 H          25.0160   34.2702    2.2233 H     1426  UNL1426     0.1146
   5704 H          24.7779   32.7105    2.6229 H     1426  UNL1426     0.1146
   5705 N          24.2904   33.5806    5.0548 N.3   1427  UNL1427    -0.3437
   5706 H          23.8487   33.8712    5.9259 H     1427  UNL1427     0.1146
   5707 H          25.0160   34.2702    4.8641 H     1427  UNL1427     0.1146
   5708 H          24.7779   32.7105    5.2637 H     1427  UNL1427     0.1146
   5709 N          24.2904   33.5806    7.6956 N.3   1428  UNL1428    -0.3437
   5710 H          23.8487   33.8712    8.5667 H     1428  UNL1428     0.1146
   5711 H          25.0160   34.2702    7.5049 H     1428  UNL1428     0.1146
   5712 H          24.7779   32.7105    7.9045 H     1428  UNL1428     0.1146
   5713 N          24.2904   33.5806   10.3364 N.3   1429  UNL1429    -0.3437
   5714 H          23.8487   33.8712   11.2075 H     1429  UNL1429     0.1146
   5715 H          25.0160   34.2702   10.1457 H     1429  UNL1429     0.1146
   5716 H          24.7779   32.7105   10.5453 H     1429  UNL1429     0.1146
   5717 N          24.2904   33.5806   12.9773 N.3   1430  UNL1430    -0.3437
   5718 H          23.8487   33.8712   13.8484 H     1430  UNL1430     0.1146
   5719 H          25.0160   34.2702   12.7866 H     1430  UNL1430     0.1146
   5720 H          24.7779   32.7105   13.1862 H     1430  UNL1430     0.1146
   5721 N          24.2904   33.5806   15.6181 N.3   1431  UNL1431    -0.3437
   5722 H          23.8487   33.8712   16.4892 H     1431  UNL1431     0.1146
   5723 H          25.0160   34.2702   15.4274 H     1431  UNL1431     0.1146
   5724 H          24.7779   32.7105   15.8270 H     1431  UNL1431     0.1146
   5725 N          24.2904   33.5806   18.2589 N.3   1432  UNL1432    -0.3437
   5726 H          23.8487   33.8712   19.1300 H     1432  UNL1432     0.1146
   5727 H          25.0160   34.2702   18.0682 H     1432  UNL1432     0.1146
   5728 H          24.7779   32.7105   18.4678 H     1432  UNL1432     0.1146
   5729 N          24.2904   33.5806   20.8997 N.3   1433  UNL1433    -0.3437
   5730 H          23.8487   33.8712   21.7708 H     1433  UNL1433     0.1146
   5731 H          25.0160   34.2702   20.7090 H     1433  UNL1433     0.1146
   5732 H          24.7779   32.7105   21.1086 H     1433  UNL1433     0.1146
   5733 N          24.4970   36.6158   -0.2323 N.3   1434  UNL1434    -0.3437
   5734 H          23.8756   36.9386    0.5079 H     1434  UNL1434     0.1146
   5735 H          25.4032   36.4635    0.2082 H     1434  UNL1434     0.1146
   5736 H          24.1574   35.6937   -0.5020 H     1434  UNL1434     0.1146
   5737 N          24.4970   36.6158    2.4085 N.3   1435  UNL1435    -0.3437
   5738 H          23.8756   36.9386    3.1487 H     1435  UNL1435     0.1146
   5739 H          25.4032   36.4635    2.8491 H     1435  UNL1435     0.1146
   5740 H          24.1574   35.6937    2.1388 H     1435  UNL1435     0.1146
   5741 N          24.4970   36.6158    5.0493 N.3   1436  UNL1436    -0.3437
   5742 H          23.8756   36.9386    5.7895 H     1436  UNL1436     0.1146
   5743 H          25.4032   36.4635    5.4899 H     1436  UNL1436     0.1146
   5744 H          24.1574   35.6937    4.7797 H     1436  UNL1436     0.1146
   5745 N          24.4970   36.6158    7.6902 N.3   1437  UNL1437    -0.3437
   5746 H          23.8756   36.9386    8.4304 H     1437  UNL1437     0.1146
   5747 H          25.4032   36.4635    8.1307 H     1437  UNL1437     0.1146
   5748 H          24.1574   35.6937    7.4205 H     1437  UNL1437     0.1146
   5749 N          24.2904   36.4004   10.3364 N.3   1438  UNL1438    -0.3437
   5750 H          23.8487   36.6910   11.2075 H     1438  UNL1438     0.1146
   5751 H          25.0160   37.0900   10.1457 H     1438  UNL1438     0.1146
   5752 H          24.7779   35.5303   10.5453 H     1438  UNL1438     0.1146
   5753 N          24.2904   36.4004   12.9773 N.3   1439  UNL1439    -0.3437
   5754 H          23.8487   36.6910   13.8484 H     1439  UNL1439     0.1146
   5755 H          25.0160   37.0900   12.7866 H     1439  UNL1439     0.1146
   5756 H          24.7779   35.5303   13.1862 H     1439  UNL1439     0.1146
   5757 N          24.2904   36.4004   15.6181 N.3   1440  UNL1440    -0.3437
   5758 H          23.8487   36.6910   16.4892 H     1440  UNL1440     0.1146
   5759 H          25.0160   37.0900   15.4274 H     1440  UNL1440     0.1146
   5760 H          24.7779   35.5303   15.8270 H     1440  UNL1440     0.1146
   5761 N          24.2904   36.4004   18.2589 N.3   1441  UNL1441    -0.3437
   5762 H          23.8487   36.6910   19.1300 H     1441  UNL1441     0.1146
   5763 H          25.0160   37.0900   18.0682 H     1441  UNL1441     0.1146
   5764 H          24.7779   35.5303   18.4678 H     1441  UNL1441     0.1146
   5765 N          24.2904   36.4004   20.8997 N.3   1442  UNL1442    -0.3437
   5766 H          23.8487   36.6910   21.7708 H     1442  UNL1442     0.1146
   5767 H          25.0160   37.0900   20.7090 H     1442  UNL1442     0.1146
   5768 H          24.7779   35.5303   21.1086 H     1442  UNL1442     0.1146
   5769 N          24.2904   39.4423    0.1065 N.3   1443  UNL1443    -0.3437
   5770 H          23.8487   38.5705   -0.1820 H     1443  UNL1443     0.1146
   5771 H          25.0160   39.1824    0.7731 H     1443  UNL1443     0.1146
   5772 H          24.7779   39.7956   -0.7156 H     1443  UNL1443     0.1146
   5773 N          24.2904   39.4423    2.7473 N.3   1444  UNL1444    -0.3437
   5774 H          23.8487   38.5705    2.4588 H     1444  UNL1444     0.1146
   5775 H          25.0160   39.1824    3.4139 H     1444  UNL1444     0.1146
   5776 H          24.7779   39.7956    1.9252 H     1444  UNL1444     0.1146
   5777 N          24.2904   39.4423    5.3881 N.3   1445  UNL1445    -0.3437
   5778 H          23.8487   38.5705    5.0996 H     1445  UNL1445     0.1146
   5779 H          25.0160   39.1824    6.0547 H     1445  UNL1445     0.1146
   5780 H          24.7779   39.7956    4.5660 H     1445  UNL1445     0.1146
   5781 N          24.2904   39.4423    8.0289 N.3   1446  UNL1446    -0.3437
   5782 H          23.8487   38.5705    7.7404 H     1446  UNL1446     0.1146
   5783 H          25.0160   39.1824    8.6955 H     1446  UNL1446     0.1146
   5784 H          24.7779   39.7956    7.2068 H     1446  UNL1446     0.1146
   5785 N          24.2904   39.2202   10.3364 N.3   1447  UNL1447    -0.3437
   5786 H          23.8487   39.5108   11.2075 H     1447  UNL1447     0.1146
   5787 H          25.0160   39.9098   10.1457 H     1447  UNL1447     0.1146
   5788 H          24.7779   38.3501   10.5453 H     1447  UNL1447     0.1146
   5789 N          24.2904   39.2202   12.9773 N.3   1448  UNL1448    -0.3437
   5790 H          23.8487   39.5108   13.8484 H     1448  UNL1448     0.1146
   5791 H          25.0160   39.9098   12.7866 H     1448  UNL1448     0.1146
   5792 H          24.7779   38.3501   13.1862 H     1448  UNL1448     0.1146
   5793 N          24.2904   39.2202   15.6181 N.3   1449  UNL1449    -0.3437
   5794 H          23.8487   39.5108   16.4892 H     1449  UNL1449     0.1146
   5795 H          25.0160   39.9098   15.4274 H     1449  UNL1449     0.1146
   5796 H          24.7779   38.3501   15.8270 H     1449  UNL1449     0.1146
   5797 N          24.2904   39.2202   18.2589 N.3   1450  UNL1450    -0.3437
   5798 H          23.8487   39.5108   19.1300 H     1450  UNL1450     0.1146
   5799 H          25.0160   39.9098   18.0682 H     1450  UNL1450     0.1146
   5800 H          24.7779   38.3501   18.4678 H     1450  UNL1450     0.1146
   5801 N          24.2904   39.2202   20.8997 N.3   1451  UNL1451    -0.3437
   5802 H          23.8487   39.5108   21.7708 H     1451  UNL1451     0.1146
   5803 H          25.0160   39.9098   20.7090 H     1451  UNL1451     0.1146
   5804 H          24.7779   38.3501   21.1086 H     1451  UNL1451     0.1146
   5805 N          26.8221   -0.2567   -0.2269 N.3   1452  UNL1452    -0.3437
   5806 H          26.3804    0.0339    0.6442 H     1452  UNL1452     0.1146
   5807 H          27.5477    0.4329   -0.4176 H     1452  UNL1452     0.1146
   5808 H          27.3096   -1.1268   -0.0180 H     1452  UNL1452     0.1146
   5809 N          26.8221   -0.2567    2.4140 N.3   1453  UNL1453    -0.3437
   5810 H          26.3804    0.0339    3.2851 H     1453  UNL1453     0.1146
   5811 H          27.5477    0.4329    2.2233 H     1453  UNL1453     0.1146
   5812 H          27.3096   -1.1268    2.6229 H     1453  UNL1453     0.1146
   5813 N          26.8221   -0.2567    5.0548 N.3   1454  UNL1454    -0.3437
   5814 H          26.3804    0.0339    5.9259 H     1454  UNL1454     0.1146
   5815 H          27.5477    0.4329    4.8641 H     1454  UNL1454     0.1146
   5816 H          27.3096   -1.1268    5.2637 H     1454  UNL1454     0.1146
   5817 N          26.8221   -0.2567    7.6956 N.3   1455  UNL1455    -0.3437
   5818 H          26.3804    0.0339    8.5667 H     1455  UNL1455     0.1146
   5819 H          27.5477    0.4329    7.5049 H     1455  UNL1455     0.1146
   5820 H          27.3096   -1.1268    7.9045 H     1455  UNL1455     0.1146
   5821 N          26.8221   -0.2567   10.3364 N.3   1456  UNL1456    -0.3437
   5822 H          26.3804    0.0339   11.2075 H     1456  UNL1456     0.1146
   5823 H          27.5477    0.4329   10.1457 H     1456  UNL1456     0.1146
   5824 H          27.3096   -1.1268   10.5453 H     1456  UNL1456     0.1146
   5825 N          26.8221   -0.2567   12.9773 N.3   1457  UNL1457    -0.3437
   5826 H          26.3804    0.0339   13.8484 H     1457  UNL1457     0.1146
   5827 H          27.5477    0.4329   12.7866 H     1457  UNL1457     0.1146
   5828 H          27.3096   -1.1268   13.1862 H     1457  UNL1457     0.1146
   5829 N          26.8221   -0.2567   15.6181 N.3   1458  UNL1458    -0.3437
   5830 H          26.3804    0.0339   16.4892 H     1458  UNL1458     0.1146
   5831 H          27.5477    0.4329   15.4274 H     1458  UNL1458     0.1146
   5832 H          27.3096   -1.1268   15.8270 H     1458  UNL1458     0.1146
   5833 N          26.8221   -0.2567   18.2589 N.3   1459  UNL1459    -0.3437
   5834 H          26.3804    0.0339   19.1300 H     1459  UNL1459     0.1146
   5835 H          27.5477    0.4329   18.0682 H     1459  UNL1459     0.1146
   5836 H          27.3096   -1.1268   18.4678 H     1459  UNL1459     0.1146
   5837 N          26.8221   -0.2567   20.8997 N.3   1460  UNL1460    -0.3437
   5838 H          26.3804    0.0339   21.7708 H     1460  UNL1460     0.1146
   5839 H          27.5477    0.4329   20.7090 H     1460  UNL1460     0.1146
   5840 H          27.3096   -1.1268   21.1086 H     1460  UNL1460     0.1146
   5841 N          26.8221    2.5631   -0.2269 N.3   1461  UNL1461    -0.3437
   5842 H          26.3804    2.8537    0.6442 H     1461  UNL1461     0.1146
   5843 H          27.5477    3.2527   -0.4176 H     1461  UNL1461     0.1146
   5844 H          27.3096    1.6930   -0.0180 H     1461  UNL1461     0.1146
   5845 N          26.8221    2.5631    2.4140 N.3   1462  UNL1462    -0.3437
   5846 H          26.3804    2.8537    3.2851 H     1462  UNL1462     0.1146
   5847 H          27.5477    3.2527    2.2233 H     1462  UNL1462     0.1146
   5848 H          27.3096    1.6930    2.6229 H     1462  UNL1462     0.1146
   5849 N          26.8221    2.5631    5.0548 N.3   1463  UNL1463    -0.3437
   5850 H          26.3804    2.8537    5.9259 H     1463  UNL1463     0.1146
   5851 H          27.5477    3.2527    4.8641 H     1463  UNL1463     0.1146
   5852 H          27.3096    1.6930    5.2637 H     1463  UNL1463     0.1146
   5853 N          26.8221    2.5631    7.6956 N.3   1464  UNL1464    -0.3437
   5854 H          26.3804    2.8537    8.5667 H     1464  UNL1464     0.1146
   5855 H          27.5477    3.2527    7.5049 H     1464  UNL1464     0.1146
   5856 H          27.3096    1.6930    7.9045 H     1464  UNL1464     0.1146
   5857 N          26.8221    2.5631   10.3364 N.3   1465  UNL1465    -0.3437
   5858 H          26.3804    2.8537   11.2075 H     1465  UNL1465     0.1146
   5859 H          27.5477    3.2527   10.1457 H     1465  UNL1465     0.1146
   5860 H          27.3096    1.6930   10.5453 H     1465  UNL1465     0.1146
   5861 N          26.8221    2.5631   12.9773 N.3   1466  UNL1466    -0.3437
   5862 H          26.3804    2.8537   13.8484 H     1466  UNL1466     0.1146
   5863 H          27.5477    3.2527   12.7866 H     1466  UNL1466     0.1146
   5864 H          27.3096    1.6930   13.1862 H     1466  UNL1466     0.1146
   5865 N          26.8221    2.5631   15.6181 N.3   1467  UNL1467    -0.3437
   5866 H          26.3804    2.8537   16.4892 H     1467  UNL1467     0.1146
   5867 H          27.5477    3.2527   15.4274 H     1467  UNL1467     0.1146
   5868 H          27.3096    1.6930   15.8270 H     1467  UNL1467     0.1146
   5869 N          26.8221    2.5631   18.2589 N.3   1468  UNL1468    -0.3437
   5870 H          26.3804    2.8537   19.1300 H     1468  UNL1468     0.1146
   5871 H          27.5477    3.2527   18.0682 H     1468  UNL1468     0.1146
   5872 H          27.3096    1.6930   18.4678 H     1468  UNL1468     0.1146
   5873 N          26.8221    2.5631   20.8997 N.3   1469  UNL1469    -0.3437
   5874 H          26.3804    2.8537   21.7708 H     1469  UNL1469     0.1146
   5875 H          27.5477    3.2527   20.7090 H     1469  UNL1469     0.1146
   5876 H          27.3096    1.6930   21.1086 H     1469  UNL1469     0.1146
   5877 N          26.8221    5.3829   -0.2269 N.3   1470  UNL1470    -0.3437
   5878 H          26.3804    5.6735    0.6442 H     1470  UNL1470     0.1146
   5879 H          27.5477    6.0725   -0.4176 H     1470  UNL1470     0.1146
   5880 H          27.3096    4.5128   -0.0180 H     1470  UNL1470     0.1146
   5881 N          26.8221    5.3829    2.4140 N.3   1471  UNL1471    -0.3437
   5882 H          26.3804    5.6735    3.2851 H     1471  UNL1471     0.1146
   5883 H          27.5477    6.0725    2.2233 H     1471  UNL1471     0.1146
   5884 H          27.3096    4.5128    2.6229 H     1471  UNL1471     0.1146
   5885 N          26.8221    5.3829    5.0548 N.3   1472  UNL1472    -0.3437
   5886 H          26.3804    5.6735    5.9259 H     1472  UNL1472     0.1146
   5887 H          27.5477    6.0725    4.8641 H     1472  UNL1472     0.1146
   5888 H          27.3096    4.5128    5.2637 H     1472  UNL1472     0.1146
   5889 N          26.8221    5.3829    7.6956 N.3   1473  UNL1473    -0.3437
   5890 H          26.3804    5.6735    8.5667 H     1473  UNL1473     0.1146
   5891 H          27.5477    6.0725    7.5049 H     1473  UNL1473     0.1146
   5892 H          27.3096    4.5128    7.9045 H     1473  UNL1473     0.1146
   5893 N          26.8221    5.3829   10.3364 N.3   1474  UNL1474    -0.3437
   5894 H          26.3804    5.6735   11.2075 H     1474  UNL1474     0.1146
   5895 H          27.5477    6.0725   10.1457 H     1474  UNL1474     0.1146
   5896 H          27.3096    4.5128   10.5453 H     1474  UNL1474     0.1146
   5897 N          26.8221    5.3829   12.9773 N.3   1475  UNL1475    -0.3437
   5898 H          26.3804    5.6735   13.8484 H     1475  UNL1475     0.1146
   5899 H          27.5477    6.0725   12.7866 H     1475  UNL1475     0.1146
   5900 H          27.3096    4.5128   13.1862 H     1475  UNL1475     0.1146
   5901 N          26.8221    5.3829   15.6181 N.3   1476  UNL1476    -0.3437
   5902 H          26.3804    5.6735   16.4892 H     1476  UNL1476     0.1146
   5903 H          27.5477    6.0725   15.4274 H     1476  UNL1476     0.1146
   5904 H          27.3096    4.5128   15.8270 H     1476  UNL1476     0.1146
   5905 N          26.8221    5.3829   18.2589 N.3   1477  UNL1477    -0.3437
   5906 H          26.3804    5.6735   19.1300 H     1477  UNL1477     0.1146
   5907 H          27.5477    6.0725   18.0682 H     1477  UNL1477     0.1146
   5908 H          27.3096    4.5128   18.4678 H     1477  UNL1477     0.1146
   5909 N          26.8221    5.3829   20.8997 N.3   1478  UNL1478    -0.3437
   5910 H          26.3804    5.6735   21.7708 H     1478  UNL1478     0.1146
   5911 H          27.5477    6.0725   20.7090 H     1478  UNL1478     0.1146
   5912 H          27.3096    4.5128   21.1086 H     1478  UNL1478     0.1146
   5913 N          26.8221    8.2026   -0.2269 N.3   1479  UNL1479    -0.3437
   5914 H          26.3804    8.4932    0.6442 H     1479  UNL1479     0.1146
   5915 H          27.5477    8.8922   -0.4176 H     1479  UNL1479     0.1146
   5916 H          27.3096    7.3325   -0.0180 H     1479  UNL1479     0.1146
   5917 N          26.8221    8.2026    2.4140 N.3   1480  UNL1480    -0.3437
   5918 H          26.3804    8.4932    3.2851 H     1480  UNL1480     0.1146
   5919 H          27.5477    8.8922    2.2233 H     1480  UNL1480     0.1146
   5920 H          27.3096    7.3325    2.6229 H     1480  UNL1480     0.1146
   5921 N          26.8221    8.2026    5.0548 N.3   1481  UNL1481    -0.3437
   5922 H          26.3804    8.4932    5.9259 H     1481  UNL1481     0.1146
   5923 H          27.5477    8.8922    4.8641 H     1481  UNL1481     0.1146
   5924 H          27.3096    7.3325    5.2637 H     1481  UNL1481     0.1146
   5925 N          26.8221    8.2026    7.6956 N.3   1482  UNL1482    -0.3437
   5926 H          26.3804    8.4932    8.5667 H     1482  UNL1482     0.1146
   5927 H          27.5477    8.8922    7.5049 H     1482  UNL1482     0.1146
   5928 H          27.3096    7.3325    7.9045 H     1482  UNL1482     0.1146
   5929 N          24.8221    8.2026   10.3364 N.3   1483  UNL1483    -0.3437
   5930 H          24.3804    8.4932   11.2075 H     1483  UNL1483     0.1146
   5931 H          25.5477    8.8922   10.1457 H     1483  UNL1483     0.1146
   5932 H          25.3096    7.3325   10.5453 H     1483  UNL1483     0.1146
   5933 N          26.9523    8.2026   13.4871 N.3   1484  UNL1484    -0.3437
   5934 H          27.9145    8.4932   13.3197 H     1484  UNL1484     0.1146
   5935 H          26.3653    8.8922   13.0199 H     1484  UNL1484     0.1146
   5936 H          26.8279    7.3325   12.9716 H     1484  UNL1484     0.1146
   5937 N          26.8221    8.2026   15.6181 N.3   1485  UNL1485    -0.3437
   5938 H          26.3804    8.4932   16.4892 H     1485  UNL1485     0.1146
   5939 H          27.5477    8.8922   15.4274 H     1485  UNL1485     0.1146
   5940 H          27.3096    7.3325   15.8270 H     1485  UNL1485     0.1146
   5941 N          26.8221    8.2026   18.2589 N.3   1486  UNL1486    -0.3437
   5942 H          26.3804    8.4932   19.1300 H     1486  UNL1486     0.1146
   5943 H          27.5477    8.8922   18.0682 H     1486  UNL1486     0.1146
   5944 H          27.3096    7.3325   18.4678 H     1486  UNL1486     0.1146
   5945 N          26.8221    8.2026   20.8997 N.3   1487  UNL1487    -0.3437
   5946 H          26.3804    8.4932   21.7708 H     1487  UNL1487     0.1146
   5947 H          27.5477    8.8922   20.7090 H     1487  UNL1487     0.1146
   5948 H          27.3096    7.3325   21.1086 H     1487  UNL1487     0.1146
   5949 N          26.8221   11.2445    0.1065 N.3   1488  UNL1488    -0.3437
   5950 H          26.3804   10.3727   -0.1820 H     1488  UNL1488     0.1146
   5951 H          27.5477   10.9846    0.7731 H     1488  UNL1488     0.1146
   5952 H          27.3096   11.5979   -0.7156 H     1488  UNL1488     0.1146
   5953 N          24.9523   11.0224    2.9238 N.3   1489  UNL1489    -0.3437
   5954 H          25.9145   11.3130    2.7564 H     1489  UNL1489     0.1146
   5955 H          24.3653   11.7120    2.4566 H     1489  UNL1489     0.1146
   5956 H          24.8279   10.1523    2.4083 H     1489  UNL1489     0.1146
   5957 N          26.8221   11.2445    5.3881 N.3   1490  UNL1490    -0.3437
   5958 H          26.3804   10.3727    5.0996 H     1490  UNL1490     0.1146
   5959 H          27.5477   10.9846    6.0547 H     1490  UNL1490     0.1146
   5960 H          27.3096   11.5979    4.5660 H     1490  UNL1490     0.1146
   5961 N          26.8221   11.2445    8.0289 N.3   1491  UNL1491    -0.3437
   5962 H          26.3804   10.3727    7.7404 H     1491  UNL1491     0.1146
   5963 H          27.5477   10.9846    8.6955 H     1491  UNL1491     0.1146
   5964 H          27.3096   11.5979    7.2068 H     1491  UNL1491     0.1146
   5965 N          26.8221   11.0224   10.3364 N.3   1492  UNL1492    -0.3437
   5966 H          26.3804   11.3130   11.2075 H     1492  UNL1492     0.1146
   5967 H          27.5477   11.7120   10.1457 H     1492  UNL1492     0.1146
   5968 H          27.3096   10.1523   10.5453 H     1492  UNL1492     0.1146
   5969 N          26.8221   11.0224   12.9773 N.3   1493  UNL1493    -0.3437
   5970 H          26.3804   11.3130   13.8484 H     1493  UNL1493     0.1146
   5971 H          27.5477   11.7120   12.7866 H     1493  UNL1493     0.1146
   5972 H          27.3096   10.1523   13.1862 H     1493  UNL1493     0.1146
   5973 N          27.0287   11.2378   15.6126 N.3   1494  UNL1494    -0.3437
   5974 H          26.4073   11.5607   16.3528 H     1494  UNL1494     0.1146
   5975 H          27.9349   11.0855   16.0532 H     1494  UNL1494     0.1146
   5976 H          26.6891   10.3157   15.3430 H     1494  UNL1494     0.1146
   5977 N          26.8221   11.2445   18.5922 N.3   1495  UNL1495    -0.3437
   5978 H          26.3804   10.3727   18.3037 H     1495  UNL1495     0.1146
   5979 H          27.5477   10.9846   19.2588 H     1495  UNL1495     0.1146
   5980 H          27.3096   11.5979   17.7701 H     1495  UNL1495     0.1146
   5981 N          26.8221   11.2445   21.2331 N.3   1496  UNL1496    -0.3437
   5982 H          26.3804   10.3727   20.9446 H     1496  UNL1496     0.1146
   5983 H          27.5477   10.9846   21.8997 H     1496  UNL1496     0.1146
   5984 H          27.3096   11.5979   20.4110 H     1496  UNL1496     0.1146
   5985 N          26.8221   14.0643    0.1065 N.3   1497  UNL1497    -0.3437
   5986 H          26.3804   13.1925   -0.1820 H     1497  UNL1497     0.1146
   5987 H          27.5477   13.8044    0.7731 H     1497  UNL1497     0.1146
   5988 H          27.3096   14.4176   -0.7156 H     1497  UNL1497     0.1146
   5989 N          26.8221   14.0643    2.7473 N.3   1498  UNL1498    -0.3437
   5990 H          26.3804   13.1925    2.4588 H     1498  UNL1498     0.1146
   5991 H          27.5477   13.8044    3.4139 H     1498  UNL1498     0.1146
   5992 H          27.3096   14.4176    1.9252 H     1498  UNL1498     0.1146
   5993 N          26.8221   14.0643    5.3881 N.3   1499  UNL1499    -0.3437
   5994 H          26.3804   13.1925    5.0996 H     1499  UNL1499     0.1146
   5995 H          27.5477   13.8044    6.0547 H     1499  UNL1499     0.1146
   5996 H          27.3096   14.4176    4.5660 H     1499  UNL1499     0.1146
   5997 N          26.8221   14.0643    8.0289 N.3   1500  UNL1500    -0.3437
   5998 H          26.3804   13.1925    7.7404 H     1500  UNL1500     0.1146
   5999 H          27.5477   13.8044    8.6955 H     1500  UNL1500     0.1146
   6000 H          27.3096   14.4176    7.2068 H     1500  UNL1500     0.1146
   6001 N          26.8221   13.8422   10.3364 N.3   1501  UNL1501    -0.3437
   6002 H          26.3804   14.1328   11.2075 H     1501  UNL1501     0.1146
   6003 H          27.5477   14.5318   10.1457 H     1501  UNL1501     0.1146
   6004 H          27.3096   12.9721   10.5453 H     1501  UNL1501     0.1146
   6005 N          24.8221   13.8422   12.9773 N.3   1502  UNL1502    -0.3437
   6006 H          24.3804   14.1328   13.8484 H     1502  UNL1502     0.1146
   6007 H          25.5477   14.5318   12.7866 H     1502  UNL1502     0.1146
   6008 H          25.3096   12.9721   13.1862 H     1502  UNL1502     0.1146
   6009 N          24.8221   13.8422   15.6181 N.3   1503  UNL1503    -0.3437
   6010 H          24.3804   14.1328   16.4892 H     1503  UNL1503     0.1146
   6011 H          25.5477   14.5318   15.4274 H     1503  UNL1503     0.1146
   6012 H          25.3096   12.9721   15.8270 H     1503  UNL1503     0.1146
   6013 N          26.8221   14.0643   18.5922 N.3   1504  UNL1504    -0.3437
   6014 H          26.3804   13.1925   18.3037 H     1504  UNL1504     0.1146
   6015 H          27.5477   13.8044   19.2588 H     1504  UNL1504     0.1146
   6016 H          27.3096   14.4176   17.7701 H     1504  UNL1504     0.1146
   6017 N          26.8221   14.0643   21.2331 N.3   1505  UNL1505    -0.3437
   6018 H          26.3804   13.1925   20.9446 H     1505  UNL1505     0.1146
   6019 H          27.5477   13.8044   21.8997 H     1505  UNL1505     0.1146
   6020 H          27.3096   14.4176   20.4110 H     1505  UNL1505     0.1146
   6021 N          26.8221   16.6619    0.4140 N.3   1506  UNL1506    -0.3437
   6022 H          26.3804   16.9525    1.2851 H     1506  UNL1506     0.1146
   6023 H          27.5477   17.3516    0.2233 H     1506  UNL1506     0.1146
   6024 H          27.3096   15.7919    0.6229 H     1506  UNL1506     0.1146
   6025 N          26.8221   16.6619    3.0548 N.3   1507  UNL1507    -0.3437
   6026 H          26.3804   16.9525    3.9259 H     1507  UNL1507     0.1146
   6027 H          27.5477   17.3516    2.8641 H     1507  UNL1507     0.1146
   6028 H          27.3096   15.7919    3.2637 H     1507  UNL1507     0.1146
   6029 N          26.8221   16.6619    5.6956 N.3   1508  UNL1508    -0.3437
   6030 H          26.3804   16.9525    6.5667 H     1508  UNL1508     0.1146
   6031 H          27.5477   17.3516    5.5049 H     1508  UNL1508     0.1146
   6032 H          27.3096   15.7919    5.9045 H     1508  UNL1508     0.1146
   6033 N          26.8221   16.6619   10.3364 N.3   1509  UNL1509    -0.3437
   6034 H          26.3804   16.9525   11.2075 H     1509  UNL1509     0.1146
   6035 H          27.5477   17.3516   10.1457 H     1509  UNL1509     0.1146
   6036 H          27.3096   15.7919   10.5453 H     1509  UNL1509     0.1146
   6037 N          26.8221   16.6619   12.9773 N.3   1510  UNL1510    -0.3437
   6038 H          26.3804   16.9525   13.8484 H     1510  UNL1510     0.1146
   6039 H          27.5477   17.3516   12.7866 H     1510  UNL1510     0.1146
   6040 H          27.3096   15.7919   13.1862 H     1510  UNL1510     0.1146
   6041 N          26.8221   16.6619   15.6181 N.3   1511  UNL1511    -0.3437
   6042 H          26.3804   16.9525   16.4892 H     1511  UNL1511     0.1146
   6043 H          27.5477   17.3516   15.4274 H     1511  UNL1511     0.1146
   6044 H          27.3096   15.7919   15.8270 H     1511  UNL1511     0.1146
   6045 N          26.8221   16.8841   18.5922 N.3   1512  UNL1512    -0.3437
   6046 H          26.3804   16.0123   18.3037 H     1512  UNL1512     0.1146
   6047 H          27.5477   16.6241   19.2588 H     1512  UNL1512     0.1146
   6048 H          27.3096   17.2374   17.7701 H     1512  UNL1512     0.1146
   6049 N          26.8221   16.8841   21.2331 N.3   1513  UNL1513    -0.3437
   6050 H          26.3804   16.0123   20.9446 H     1513  UNL1513     0.1146
   6051 H          27.5477   16.6241   21.8997 H     1513  UNL1513     0.1146
   6052 H          27.3096   17.2374   20.4110 H     1513  UNL1513     0.1146
   6053 N          26.8221   19.7038    0.1065 N.3   1514  UNL1514    -0.3437
   6054 H          26.3804   18.8320   -0.1820 H     1514  UNL1514     0.1146
   6055 H          27.5477   19.4439    0.7731 H     1514  UNL1514     0.1146
   6056 H          27.3096   20.0572   -0.7156 H     1514  UNL1514     0.1146
   6057 N          26.8221   19.7038    2.7473 N.3   1515  UNL1515    -0.3437
   6058 H          26.3804   18.8320    2.4588 H     1515  UNL1515     0.1146
   6059 H          27.5477   19.4439    3.4139 H     1515  UNL1515     0.1146
   6060 H          27.3096   20.0572    1.9252 H     1515  UNL1515     0.1146
   6061 N          26.8221   19.7038    5.3881 N.3   1516  UNL1516    -0.3437
   6062 H          26.3804   18.8320    5.0996 H     1516  UNL1516     0.1146
   6063 H          27.5477   19.4439    6.0547 H     1516  UNL1516     0.1146
   6064 H          27.3096   20.0572    4.5660 H     1516  UNL1516     0.1146
   6065 N          26.8221   19.7038    8.0289 N.3   1517  UNL1517    -0.3437
   6066 H          26.3804   18.8320    7.7404 H     1517  UNL1517     0.1146
   6067 H          27.5477   19.4439    8.6955 H     1517  UNL1517     0.1146
   6068 H          27.3096   20.0572    7.2068 H     1517  UNL1517     0.1146
   6069 N          26.8221   19.4817   10.3364 N.3   1518  UNL1518    -0.3437
   6070 H          26.3804   19.7723   11.2075 H     1518  UNL1518     0.1146
   6071 H          27.5477   20.1713   10.1457 H     1518  UNL1518     0.1146
   6072 H          27.3096   18.6116   10.5453 H     1518  UNL1518     0.1146
   6073 N          27.0287   19.6971   12.9718 N.3   1519  UNL1519    -0.3437
   6074 H          26.4073   20.0200   13.7120 H     1519  UNL1519     0.1146
   6075 H          27.9349   19.5448   13.4124 H     1519  UNL1519     0.1146
   6076 H          26.6891   18.7751   12.7021 H     1519  UNL1519     0.1146
   6077 N          26.7857   19.3889   15.6979 N.3   1520  UNL1520    -0.3437
   6078 H          26.9134   19.0057   16.6334 H     1520  UNL1520     0.1146
   6079 H          26.6906   20.3964   15.8176 H     1520  UNL1520     0.1146
   6080 H          27.6703   19.2460   15.2127 H     1520  UNL1520     0.1146
   6081 N          26.8221   19.7038   18.5922 N.3   1521  UNL1521    -0.3437
   6082 H          26.3804   18.8320   18.3037 H     1521  UNL1521     0.1146
   6083 H          27.5477   19.4439   19.2588 H     1521  UNL1521     0.1146
   6084 H          27.3096   20.0572   17.7701 H     1521  UNL1521     0.1146
   6085 N          26.8221   19.7038   21.2331 N.3   1522  UNL1522    -0.3437
   6086 H          26.3804   18.8320   20.9446 H     1522  UNL1522     0.1146
   6087 H          27.5477   19.4439   21.8997 H     1522  UNL1522     0.1146
   6088 H          27.3096   20.0572   20.4110 H     1522  UNL1522     0.1146
   6089 N          24.8221   22.5236    0.7473 N.3   1523  UNL1523    -0.3437
   6090 H          24.3804   21.6518    0.4588 H     1523  UNL1523     0.1146
   6091 H          25.5477   22.2637    1.4139 H     1523  UNL1523     0.1146
   6092 H          25.3096   22.8770   -0.0748 H     1523  UNL1523     0.1146
   6093 N          26.8221   22.3015    3.0548 N.3   1524  UNL1524    -0.3437
   6094 H          26.3804   22.5921    3.9259 H     1524  UNL1524     0.1146
   6095 H          27.5477   22.9911    2.8641 H     1524  UNL1524     0.1146
   6096 H          27.3096   21.4314    3.2637 H     1524  UNL1524     0.1146
   6097 N          26.8221   22.3015    5.6956 N.3   1525  UNL1525    -0.3437
   6098 H          26.3804   22.5921    6.5667 H     1525  UNL1525     0.1146
   6099 H          27.5477   22.9911    5.5049 H     1525  UNL1525     0.1146
   6100 H          27.3096   21.4314    5.9045 H     1525  UNL1525     0.1146
   6101 N          26.8221   22.3015   10.3364 N.3   1526  UNL1526    -0.3437
   6102 H          26.3804   22.5921   11.2075 H     1526  UNL1526     0.1146
   6103 H          27.5477   22.9911   10.1457 H     1526  UNL1526     0.1146
   6104 H          27.3096   21.4314   10.5453 H     1526  UNL1526     0.1146
   6105 N          26.8221   22.3015   12.9773 N.3   1527  UNL1527    -0.3437
   6106 H          26.3804   22.5921   13.8484 H     1527  UNL1527     0.1146
   6107 H          27.5477   22.9911   12.7866 H     1527  UNL1527     0.1146
   6108 H          27.3096   21.4314   13.1862 H     1527  UNL1527     0.1146
   6109 N          26.8221   22.3015   15.6181 N.3   1528  UNL1528    -0.3437
   6110 H          26.3804   22.5921   16.4892 H     1528  UNL1528     0.1146
   6111 H          27.5477   22.9911   15.4274 H     1528  UNL1528     0.1146
   6112 H          27.3096   21.4314   15.8270 H     1528  UNL1528     0.1146
   6113 N          26.8221   22.5236   18.5922 N.3   1529  UNL1529    -0.3437
   6114 H          26.3804   21.6518   18.3037 H     1529  UNL1529     0.1146
   6115 H          27.5477   22.2637   19.2588 H     1529  UNL1529     0.1146
   6116 H          27.3096   22.8770   17.7701 H     1529  UNL1529     0.1146
   6117 N          25.0287   22.5169   20.8943 N.3   1530  UNL1530    -0.3437
   6118 H          24.4073   22.8398   21.6345 H     1530  UNL1530     0.1146
   6119 H          25.9349   22.3646   21.3348 H     1530  UNL1530     0.1146
   6120 H          24.6891   21.5948   20.6246 H     1530  UNL1530     0.1146
   6121 N          26.8221   25.3434    0.1065 N.3   1531  UNL1531    -0.3437
   6122 H          26.3804   24.4716   -0.1820 H     1531  UNL1531     0.1146
   6123 H          27.5477   25.0835    0.7731 H     1531  UNL1531     0.1146
   6124 H          27.3096   25.6967   -0.7156 H     1531  UNL1531     0.1146
   6125 N          26.8221   25.3434    2.7473 N.3   1532  UNL1532    -0.3437
   6126 H          26.3804   24.4716    2.4588 H     1532  UNL1532     0.1146
   6127 H          27.5477   25.0835    3.4139 H     1532  UNL1532     0.1146
   6128 H          27.3096   25.6967    1.9252 H     1532  UNL1532     0.1146
   6129 N          26.8221   25.3434    5.3881 N.3   1533  UNL1533    -0.3437
   6130 H          26.3804   24.4716    5.0996 H     1533  UNL1533     0.1146
   6131 H          27.5477   25.0835    6.0547 H     1533  UNL1533     0.1146
   6132 H          27.3096   25.6967    4.5660 H     1533  UNL1533     0.1146
   6133 N          26.8221   25.3434    8.0289 N.3   1534  UNL1534    -0.3437
   6134 H          26.3804   24.4716    7.7404 H     1534  UNL1534     0.1146
   6135 H          27.5477   25.0835    8.6955 H     1534  UNL1534     0.1146
   6136 H          27.3096   25.6967    7.2068 H     1534  UNL1534     0.1146
   6137 N          26.8221   25.1213   10.3364 N.3   1535  UNL1535    -0.3437
   6138 H          26.3804   25.4119   11.2075 H     1535  UNL1535     0.1146
   6139 H          27.5477   25.8109   10.1457 H     1535  UNL1535     0.1146
   6140 H          27.3096   24.2512   10.5453 H     1535  UNL1535     0.1146
   6141 N          27.0593   24.9301   13.0057 N.3   1536  UNL1536    -0.3437
   6142 H          26.1149   24.9321   13.3882 H     1536  UNL1536     0.1146
   6143 H          27.1990   25.8533   12.5974 H     1536  UNL1536     0.1146
   6144 H          27.6868   24.8797   13.8070 H     1536  UNL1536     0.1146
   6145 N          26.7857   25.0284   15.6979 N.3   1537  UNL1537    -0.3437
   6146 H          26.9134   24.6452   16.6334 H     1537  UNL1537     0.1146
   6147 H          26.6906   26.0359   15.8176 H     1537  UNL1537     0.1146
   6148 H          27.6703   24.8856   15.2127 H     1537  UNL1537     0.1146
   6149 N          26.8221   25.3434   18.5922 N.3   1538  UNL1538    -0.3437
   6150 H          26.3804   24.4716   18.3037 H     1538  UNL1538     0.1146
   6151 H          27.5477   25.0835   19.2588 H     1538  UNL1538     0.1146
   6152 H          27.3096   25.6967   17.7701 H     1538  UNL1538     0.1146
   6153 N          26.8221   25.3434   21.2331 N.3   1539  UNL1539    -0.3437
   6154 H          26.3804   24.4716   20.9446 H     1539  UNL1539     0.1146
   6155 H          27.5477   25.0835   21.8997 H     1539  UNL1539     0.1146
   6156 H          27.3096   25.6967   20.4110 H     1539  UNL1539     0.1146
   6157 N          26.8221   28.1632    0.1065 N.3   1540  UNL1540    -0.3437
   6158 H          26.3804   27.2914   -0.1820 H     1540  UNL1540     0.1146
   6159 H          27.5477   27.9032    0.7731 H     1540  UNL1540     0.1146
   6160 H          27.3096   28.5165   -0.7156 H     1540  UNL1540     0.1146
   6161 N          26.8221   28.1632    2.7473 N.3   1541  UNL1541    -0.3437
   6162 H          26.3804   27.2914    2.4588 H     1541  UNL1541     0.1146
   6163 H          27.5477   27.9032    3.4139 H     1541  UNL1541     0.1146
   6164 H          27.3096   28.5165    1.9252 H     1541  UNL1541     0.1146
   6165 N          26.8221   28.1632    5.3881 N.3   1542  UNL1542    -0.3437
   6166 H          26.3804   27.2914    5.0996 H     1542  UNL1542     0.1146
   6167 H          27.5477   27.9032    6.0547 H     1542  UNL1542     0.1146
   6168 H          27.3096   28.5165    4.5660 H     1542  UNL1542     0.1146
   6169 N          26.8221   28.1632    8.0289 N.3   1543  UNL1543    -0.3437
   6170 H          26.3804   27.2914    7.7404 H     1543  UNL1543     0.1146
   6171 H          27.5477   27.9032    8.6955 H     1543  UNL1543     0.1146
   6172 H          27.3096   28.5165    7.2068 H     1543  UNL1543     0.1146
   6173 N          26.8221   28.1632   10.6698 N.3   1544  UNL1544    -0.3437
   6174 H          26.3804   27.2914   10.3813 H     1544  UNL1544     0.1146
   6175 H          27.5477   27.9032   11.3364 H     1544  UNL1544     0.1146
   6176 H          27.3096   28.5165    9.8477 H     1544  UNL1544     0.1146
   6177 N          26.8221   28.1632   13.3106 N.3   1545  UNL1545    -0.3437
   6178 H          26.3804   27.2914   13.0221 H     1545  UNL1545     0.1146
   6179 H          27.5477   27.9032   13.9772 H     1545  UNL1545     0.1146
   6180 H          27.3096   28.5165   12.4885 H     1545  UNL1545     0.1146
   6181 N          26.8221   28.1632   15.9514 N.3   1546  UNL1546    -0.3437
   6182 H          26.3804   27.2914   15.6629 H     1546  UNL1546     0.1146
   6183 H          27.5477   27.9032   16.6180 H     1546  UNL1546     0.1146
   6184 H          27.3096   28.5165   15.1293 H     1546  UNL1546     0.1146
   6185 N          26.8221   28.1632   18.5922 N.3   1547  UNL1547    -0.3437
   6186 H          26.3804   27.2914   18.3037 H     1547  UNL1547     0.1146
   6187 H          27.5477   27.9032   19.2588 H     1547  UNL1547     0.1146
   6188 H          27.3096   28.5165   17.7701 H     1547  UNL1547     0.1146
   6189 N          26.8221   28.1632   21.2331 N.3   1548  UNL1548    -0.3437
   6190 H          26.3804   27.2914   20.9446 H     1548  UNL1548     0.1146
   6191 H          27.5477   27.9032   21.8997 H     1548  UNL1548     0.1146
   6192 H          27.3096   28.5165   20.4110 H     1548  UNL1548     0.1146
   6193 N          26.8221   30.7608   -0.2269 N.3   1549  UNL1549    -0.3437
   6194 H          26.3804   31.0514    0.6442 H     1549  UNL1549     0.1146
   6195 H          27.5477   31.4504   -0.4176 H     1549  UNL1549     0.1146
   6196 H          27.3096   29.8907   -0.0180 H     1549  UNL1549     0.1146
   6197 N          26.8221   30.7608    2.4140 N.3   1550  UNL1550    -0.3437
   6198 H          26.3804   31.0514    3.2851 H     1550  UNL1550     0.1146
   6199 H          27.5477   31.4504    2.2233 H     1550  UNL1550     0.1146
   6200 H          27.3096   29.8907    2.6229 H     1550  UNL1550     0.1146
   6201 N          26.8221   30.7608    5.0548 N.3   1551  UNL1551    -0.3437
   6202 H          26.3804   31.0514    5.9259 H     1551  UNL1551     0.1146
   6203 H          27.5477   31.4504    4.8641 H     1551  UNL1551     0.1146
   6204 H          27.3096   29.8907    5.2637 H     1551  UNL1551     0.1146
   6205 N          26.8221   30.7608    7.6956 N.3   1552  UNL1552    -0.3437
   6206 H          26.3804   31.0514    8.5667 H     1552  UNL1552     0.1146
   6207 H          27.5477   31.4504    7.5049 H     1552  UNL1552     0.1146
   6208 H          27.3096   29.8907    7.9045 H     1552  UNL1552     0.1146
   6209 N          24.8221   30.7608   10.3364 N.3   1553  UNL1553    -0.3437
   6210 H          24.3804   31.0514   11.2075 H     1553  UNL1553     0.1146
   6211 H          25.5477   31.4504   10.1457 H     1553  UNL1553     0.1146
   6212 H          25.3096   29.8907   10.5453 H     1553  UNL1553     0.1146
   6213 N          26.8221   30.7608   12.9773 N.3   1554  UNL1554    -0.3437
   6214 H          26.3804   31.0514   13.8484 H     1554  UNL1554     0.1146
   6215 H          27.5477   31.4504   12.7866 H     1554  UNL1554     0.1146
   6216 H          27.3096   29.8907   13.1862 H     1554  UNL1554     0.1146
   6217 N          26.8221   30.7608   15.6181 N.3   1555  UNL1555    -0.3437
   6218 H          26.3804   31.0514   16.4892 H     1555  UNL1555     0.1146
   6219 H          27.5477   31.4504   15.4274 H     1555  UNL1555     0.1146
   6220 H          27.3096   29.8907   15.8270 H     1555  UNL1555     0.1146
   6221 N          26.8221   30.7608   18.2589 N.3   1556  UNL1556    -0.3437
   6222 H          26.3804   31.0514   19.1300 H     1556  UNL1556     0.1146
   6223 H          27.5477   31.4504   18.0682 H     1556  UNL1556     0.1146
   6224 H          27.3096   29.8907   18.4678 H     1556  UNL1556     0.1146
   6225 N          26.8221   30.7608   20.8997 N.3   1557  UNL1557    -0.3437
   6226 H          26.3804   31.0514   21.7708 H     1557  UNL1557     0.1146
   6227 H          27.5477   31.4504   20.7090 H     1557  UNL1557     0.1146
   6228 H          27.3096   29.8907   21.1086 H     1557  UNL1557     0.1146
   6229 N          26.8221   33.5806   -0.2269 N.3   1558  UNL1558    -0.3437
   6230 H          26.3804   33.8712    0.6442 H     1558  UNL1558     0.1146
   6231 H          27.5477   34.2702   -0.4176 H     1558  UNL1558     0.1146
   6232 H          27.3096   32.7105   -0.0180 H     1558  UNL1558     0.1146
   6233 N          26.8221   33.5806    2.4140 N.3   1559  UNL1559    -0.3437
   6234 H          26.3804   33.8712    3.2851 H     1559  UNL1559     0.1146
   6235 H          27.5477   34.2702    2.2233 H     1559  UNL1559     0.1146
   6236 H          27.3096   32.7105    2.6229 H     1559  UNL1559     0.1146
   6237 N          26.8221   33.5806    5.0548 N.3   1560  UNL1560    -0.3437
   6238 H          26.3804   33.8712    5.9259 H     1560  UNL1560     0.1146
   6239 H          27.5477   34.2702    4.8641 H     1560  UNL1560     0.1146
   6240 H          27.3096   32.7105    5.2637 H     1560  UNL1560     0.1146
   6241 N          26.8221   33.5806    7.6956 N.3   1561  UNL1561    -0.3437
   6242 H          26.3804   33.8712    8.5667 H     1561  UNL1561     0.1146
   6243 H          27.5477   34.2702    7.5049 H     1561  UNL1561     0.1146
   6244 H          27.3096   32.7105    7.9045 H     1561  UNL1561     0.1146
   6245 N          26.8221   33.5806   10.3364 N.3   1562  UNL1562    -0.3437
   6246 H          26.3804   33.8712   11.2075 H     1562  UNL1562     0.1146
   6247 H          27.5477   34.2702   10.1457 H     1562  UNL1562     0.1146
   6248 H          27.3096   32.7105   10.5453 H     1562  UNL1562     0.1146
   6249 N          26.8221   33.5806   12.9773 N.3   1563  UNL1563    -0.3437
   6250 H          26.3804   33.8712   13.8484 H     1563  UNL1563     0.1146
   6251 H          27.5477   34.2702   12.7866 H     1563  UNL1563     0.1146
   6252 H          27.3096   32.7105   13.1862 H     1563  UNL1563     0.1146
   6253 N          26.8221   33.5806   15.6181 N.3   1564  UNL1564    -0.3437
   6254 H          26.3804   33.8712   16.4892 H     1564  UNL1564     0.1146
   6255 H          27.5477   34.2702   15.4274 H     1564  UNL1564     0.1146
   6256 H          27.3096   32.7105   15.8270 H     1564  UNL1564     0.1146
   6257 N          26.8221   33.5806   18.2589 N.3   1565  UNL1565    -0.3437
   6258 H          26.3804   33.8712   19.1300 H     1565  UNL1565     0.1146
   6259 H          27.5477   34.2702   18.0682 H     1565  UNL1565     0.1146
   6260 H          27.3096   32.7105   18.4678 H     1565  UNL1565     0.1146
   6261 N          26.8221   33.5806   20.8997 N.3   1566  UNL1566    -0.3437
   6262 H          26.3804   33.8712   21.7708 H     1566  UNL1566     0.1146
   6263 H          27.5477   34.2702   20.7090 H     1566  UNL1566     0.1146
   6264 H          27.3096   32.7105   21.1086 H     1566  UNL1566     0.1146
   6265 N          26.8221   36.4004   -0.2269 N.3   1567  UNL1567    -0.3437
   6266 H          26.3804   36.6910    0.6442 H     1567  UNL1567     0.1146
   6267 H          27.5477   37.0900   -0.4176 H     1567  UNL1567     0.1146
   6268 H          27.3096   35.5303   -0.0180 H     1567  UNL1567     0.1146
   6269 N          26.8221   36.4004    2.4140 N.3   1568  UNL1568    -0.3437
   6270 H          26.3804   36.6910    3.2851 H     1568  UNL1568     0.1146
   6271 H          27.5477   37.0900    2.2233 H     1568  UNL1568     0.1146
   6272 H          27.3096   35.5303    2.6229 H     1568  UNL1568     0.1146
   6273 N          26.8221   36.4004    5.0548 N.3   1569  UNL1569    -0.3437
   6274 H          26.3804   36.6910    5.9259 H     1569  UNL1569     0.1146
   6275 H          27.5477   37.0900    4.8641 H     1569  UNL1569     0.1146
   6276 H          27.3096   35.5303    5.2637 H     1569  UNL1569     0.1146
   6277 N          26.8221   36.4004    7.6956 N.3   1570  UNL1570    -0.3437
   6278 H          26.3804   36.6910    8.5667 H     1570  UNL1570     0.1146
   6279 H          27.5477   37.0900    7.5049 H     1570  UNL1570     0.1146
   6280 H          27.3096   35.5303    7.9045 H     1570  UNL1570     0.1146
   6281 N          26.8221   36.4004   10.3364 N.3   1571  UNL1571    -0.3437
   6282 H          26.3804   36.6910   11.2075 H     1571  UNL1571     0.1146
   6283 H          27.5477   37.0900   10.1457 H     1571  UNL1571     0.1146
   6284 H          27.3096   35.5303   10.5453 H     1571  UNL1571     0.1146
   6285 N          26.8221   36.4004   12.9773 N.3   1572  UNL1572    -0.3437
   6286 H          26.3804   36.6910   13.8484 H     1572  UNL1572     0.1146
   6287 H          27.5477   37.0900   12.7866 H     1572  UNL1572     0.1146
   6288 H          27.3096   35.5303   13.1862 H     1572  UNL1572     0.1146
   6289 N          26.8221   36.4004   15.6181 N.3   1573  UNL1573    -0.3437
   6290 H          26.3804   36.6910   16.4892 H     1573  UNL1573     0.1146
   6291 H          27.5477   37.0900   15.4274 H     1573  UNL1573     0.1146
   6292 H          27.3096   35.5303   15.8270 H     1573  UNL1573     0.1146
   6293 N          26.8221   36.4004   18.2589 N.3   1574  UNL1574    -0.3437
   6294 H          26.3804   36.6910   19.1300 H     1574  UNL1574     0.1146
   6295 H          27.5477   37.0900   18.0682 H     1574  UNL1574     0.1146
   6296 H          27.3096   35.5303   18.4678 H     1574  UNL1574     0.1146
   6297 N          26.8221   36.4004   20.8997 N.3   1575  UNL1575    -0.3437
   6298 H          26.3804   36.6910   21.7708 H     1575  UNL1575     0.1146
   6299 H          27.5477   37.0900   20.7090 H     1575  UNL1575     0.1146
   6300 H          27.3096   35.5303   21.1086 H     1575  UNL1575     0.1146
   6301 N          26.8221   39.2202   -0.2269 N.3   1576  UNL1576    -0.3437
   6302 H          26.3804   39.5108    0.6442 H     1576  UNL1576     0.1146
   6303 H          27.5477   39.9098   -0.4176 H     1576  UNL1576     0.1146
   6304 H          27.3096   38.3501   -0.0180 H     1576  UNL1576     0.1146
   6305 N          26.8221   39.2202    2.4140 N.3   1577  UNL1577    -0.3437
   6306 H          26.3804   39.5108    3.2851 H     1577  UNL1577     0.1146
   6307 H          27.5477   39.9098    2.2233 H     1577  UNL1577     0.1146
   6308 H          27.3096   38.3501    2.6229 H     1577  UNL1577     0.1146
   6309 N          26.8221   39.2202    5.0548 N.3   1578  UNL1578    -0.3437
   6310 H          26.3804   39.5108    5.9259 H     1578  UNL1578     0.1146
   6311 H          27.5477   39.9098    4.8641 H     1578  UNL1578     0.1146
   6312 H          27.3096   38.3501    5.2637 H     1578  UNL1578     0.1146
   6313 N          26.8221   39.2202    7.6956 N.3   1579  UNL1579    -0.3437
   6314 H          26.3804   39.5108    8.5667 H     1579  UNL1579     0.1146
   6315 H          27.5477   39.9098    7.5049 H     1579  UNL1579     0.1146
   6316 H          27.3096   38.3501    7.9045 H     1579  UNL1579     0.1146
   6317 N          26.8221   39.2202   10.3364 N.3   1580  UNL1580    -0.3437
   6318 H          26.3804   39.5108   11.2075 H     1580  UNL1580     0.1146
   6319 H          27.5477   39.9098   10.1457 H     1580  UNL1580     0.1146
   6320 H          27.3096   38.3501   10.5453 H     1580  UNL1580     0.1146
   6321 N          26.8221   39.2202   12.9773 N.3   1581  UNL1581    -0.3437
   6322 H          26.3804   39.5108   13.8484 H     1581  UNL1581     0.1146
   6323 H          27.5477   39.9098   12.7866 H     1581  UNL1581     0.1146
   6324 H          27.3096   38.3501   13.1862 H     1581  UNL1581     0.1146
   6325 N          26.8221   39.2202   15.6181 N.3   1582  UNL1582    -0.3437
   6326 H          26.3804   39.5108   16.4892 H     1582  UNL1582     0.1146
   6327 H          27.5477   39.9098   15.4274 H     1582  UNL1582     0.1146
   6328 H          27.3096   38.3501   15.8270 H     1582  UNL1582     0.1146
   6329 N          26.8221   39.2202   18.2589 N.3   1583  UNL1583    -0.3437
   6330 H          26.3804   39.5108   19.1300 H     1583  UNL1583     0.1146
   6331 H          27.5477   39.9098   18.0682 H     1583  UNL1583     0.1146
   6332 H          27.3096   38.3501   18.4678 H     1583  UNL1583     0.1146
   6333 N          26.8221   39.2202   20.8997 N.3   1584  UNL1584    -0.3437
   6334 H          26.3804   39.5108   21.7708 H     1584  UNL1584     0.1146
   6335 H          27.5477   39.9098   20.7090 H     1584  UNL1584     0.1146
   6336 H          27.3096   38.3501   21.1086 H     1584  UNL1584     0.1146
   6337 N          29.3538   -0.2567   -0.2269 N.3   1585  UNL1585    -0.3437
   6338 H          28.9121    0.0339    0.6442 H     1585  UNL1585     0.1146
   6339 H          30.0794    0.4329   -0.4176 H     1585  UNL1585     0.1146
   6340 H          29.8413   -1.1268   -0.0180 H     1585  UNL1585     0.1146
   6341 N          29.3538   -0.2567    2.4140 N.3   1586  UNL1586    -0.3437
   6342 H          28.9121    0.0339    3.2851 H     1586  UNL1586     0.1146
   6343 H          30.0794    0.4329    2.2233 H     1586  UNL1586     0.1146
   6344 H          29.8413   -1.1268    2.6229 H     1586  UNL1586     0.1146
   6345 N          29.3538   -0.2567    5.0548 N.3   1587  UNL1587    -0.3437
   6346 H          28.9121    0.0339    5.9259 H     1587  UNL1587     0.1146
   6347 H          30.0794    0.4329    4.8641 H     1587  UNL1587     0.1146
   6348 H          29.8413   -1.1268    5.2637 H     1587  UNL1587     0.1146
   6349 N          29.3538   -0.2567    7.6956 N.3   1588  UNL1588    -0.3437
   6350 H          28.9121    0.0339    8.5667 H     1588  UNL1588     0.1146
   6351 H          30.0794    0.4329    7.5049 H     1588  UNL1588     0.1146
   6352 H          29.8413   -1.1268    7.9045 H     1588  UNL1588     0.1146
   6353 N          29.3538   -0.2567   10.3364 N.3   1589  UNL1589    -0.3437
   6354 H          28.9121    0.0339   11.2075 H     1589  UNL1589     0.1146
   6355 H          30.0794    0.4329   10.1457 H     1589  UNL1589     0.1146
   6356 H          29.8413   -1.1268   10.5453 H     1589  UNL1589     0.1146
   6357 N          29.3538   -0.2567   12.9773 N.3   1590  UNL1590    -0.3437
   6358 H          28.9121    0.0339   13.8484 H     1590  UNL1590     0.1146
   6359 H          30.0794    0.4329   12.7866 H     1590  UNL1590     0.1146
   6360 H          29.8413   -1.1268   13.1862 H     1590  UNL1590     0.1146
   6361 N          29.3538   -0.2567   15.6181 N.3   1591  UNL1591    -0.3437
   6362 H          28.9121    0.0339   16.4892 H     1591  UNL1591     0.1146
   6363 H          30.0794    0.4329   15.4274 H     1591  UNL1591     0.1146
   6364 H          29.8413   -1.1268   15.8270 H     1591  UNL1591     0.1146
   6365 N          29.3538   -0.2567   18.2589 N.3   1592  UNL1592    -0.3437
   6366 H          28.9121    0.0339   19.1300 H     1592  UNL1592     0.1146
   6367 H          30.0794    0.4329   18.0682 H     1592  UNL1592     0.1146
   6368 H          29.8413   -1.1268   18.4678 H     1592  UNL1592     0.1146
   6369 N          29.3538   -0.2567   20.8997 N.3   1593  UNL1593    -0.3437
   6370 H          28.9121    0.0339   21.7708 H     1593  UNL1593     0.1146
   6371 H          30.0794    0.4329   20.7090 H     1593  UNL1593     0.1146
   6372 H          29.8413   -1.1268   21.1086 H     1593  UNL1593     0.1146
   6373 N          29.3538    2.5631   -0.2269 N.3   1594  UNL1594    -0.3437
   6374 H          28.9121    2.8537    0.6442 H     1594  UNL1594     0.1146
   6375 H          30.0794    3.2527   -0.4176 H     1594  UNL1594     0.1146
   6376 H          29.8413    1.6930   -0.0180 H     1594  UNL1594     0.1146
   6377 N          29.3538    2.5631    2.4140 N.3   1595  UNL1595    -0.3437
   6378 H          28.9121    2.8537    3.2851 H     1595  UNL1595     0.1146
   6379 H          30.0794    3.2527    2.2233 H     1595  UNL1595     0.1146
   6380 H          29.8413    1.6930    2.6229 H     1595  UNL1595     0.1146
   6381 N          29.3538    2.5631    5.0548 N.3   1596  UNL1596    -0.3437
   6382 H          28.9121    2.8537    5.9259 H     1596  UNL1596     0.1146
   6383 H          30.0794    3.2527    4.8641 H     1596  UNL1596     0.1146
   6384 H          29.8413    1.6930    5.2637 H     1596  UNL1596     0.1146
   6385 N          29.3538    2.5631    7.6956 N.3   1597  UNL1597    -0.3437
   6386 H          28.9121    2.8537    8.5667 H     1597  UNL1597     0.1146
   6387 H          30.0794    3.2527    7.5049 H     1597  UNL1597     0.1146
   6388 H          29.8413    1.6930    7.9045 H     1597  UNL1597     0.1146
   6389 N          29.3538    2.5631   10.3364 N.3   1598  UNL1598    -0.3437
   6390 H          28.9121    2.8537   11.2075 H     1598  UNL1598     0.1146
   6391 H          30.0794    3.2527   10.1457 H     1598  UNL1598     0.1146
   6392 H          29.8413    1.6930   10.5453 H     1598  UNL1598     0.1146
   6393 N          29.3538    2.5631   12.9773 N.3   1599  UNL1599    -0.3437
   6394 H          28.9121    2.8537   13.8484 H     1599  UNL1599     0.1146
   6395 H          30.0794    3.2527   12.7866 H     1599  UNL1599     0.1146
   6396 H          29.8413    1.6930   13.1862 H     1599  UNL1599     0.1146
   6397 N          29.3538    2.5631   15.6181 N.3   1600  UNL1600    -0.3437
   6398 H          28.9121    2.8537   16.4892 H     1600  UNL1600     0.1146
   6399 H          30.0794    3.2527   15.4274 H     1600  UNL1600     0.1146
   6400 H          29.8413    1.6930   15.8270 H     1600  UNL1600     0.1146
   6401 N          29.3538    2.5631   18.2589 N.3   1601  UNL1601    -0.3437
   6402 H          28.9121    2.8537   19.1300 H     1601  UNL1601     0.1146
   6403 H          30.0794    3.2527   18.0682 H     1601  UNL1601     0.1146
   6404 H          29.8413    1.6930   18.4678 H     1601  UNL1601     0.1146
   6405 N          29.3538    2.5631   20.8997 N.3   1602  UNL1602    -0.3437
   6406 H          28.9121    2.8537   21.7708 H     1602  UNL1602     0.1146
   6407 H          30.0794    3.2527   20.7090 H     1602  UNL1602     0.1146
   6408 H          29.8413    1.6930   21.1086 H     1602  UNL1602     0.1146
   6409 N          29.3538    5.3829   -0.2269 N.3   1603  UNL1603    -0.3437
   6410 H          28.9121    5.6735    0.6442 H     1603  UNL1603     0.1146
   6411 H          30.0794    6.0725   -0.4176 H     1603  UNL1603     0.1146
   6412 H          29.8413    4.5128   -0.0180 H     1603  UNL1603     0.1146
   6413 N          29.3538    5.3829    2.4140 N.3   1604  UNL1604    -0.3437
   6414 H          28.9121    5.6735    3.2851 H     1604  UNL1604     0.1146
   6415 H          30.0794    6.0725    2.2233 H     1604  UNL1604     0.1146
   6416 H          29.8413    4.5128    2.6229 H     1604  UNL1604     0.1146
   6417 N          29.3538    5.3829    5.0548 N.3   1605  UNL1605    -0.3437
   6418 H          28.9121    5.6735    5.9259 H     1605  UNL1605     0.1146
   6419 H          30.0794    6.0725    4.8641 H     1605  UNL1605     0.1146
   6420 H          29.8413    4.5128    5.2637 H     1605  UNL1605     0.1146
   6421 N          29.3538    5.3829    7.6956 N.3   1606  UNL1606    -0.3437
   6422 H          28.9121    5.6735    8.5667 H     1606  UNL1606     0.1146
   6423 H          30.0794    6.0725    7.5049 H     1606  UNL1606     0.1146
   6424 H          29.8413    4.5128    7.9045 H     1606  UNL1606     0.1146
   6425 N          29.3538    5.3829   10.3364 N.3   1607  UNL1607    -0.3437
   6426 H          28.9121    5.6735   11.2075 H     1607  UNL1607     0.1146
   6427 H          30.0794    6.0725   10.1457 H     1607  UNL1607     0.1146
   6428 H          29.8413    4.5128   10.5453 H     1607  UNL1607     0.1146
   6429 N          29.3538    5.3829   12.9773 N.3   1608  UNL1608    -0.3437
   6430 H          28.9121    5.6735   13.8484 H     1608  UNL1608     0.1146
   6431 H          30.0794    6.0725   12.7866 H     1608  UNL1608     0.1146
   6432 H          29.8413    4.5128   13.1862 H     1608  UNL1608     0.1146
   6433 N          29.3538    5.3829   15.6181 N.3   1609  UNL1609    -0.3437
   6434 H          28.9121    5.6735   16.4892 H     1609  UNL1609     0.1146
   6435 H          30.0794    6.0725   15.4274 H     1609  UNL1609     0.1146
   6436 H          29.8413    4.5128   15.8270 H     1609  UNL1609     0.1146
   6437 N          29.3538    5.3829   18.2589 N.3   1610  UNL1610    -0.3437
   6438 H          28.9121    5.6735   19.1300 H     1610  UNL1610     0.1146
   6439 H          30.0794    6.0725   18.0682 H     1610  UNL1610     0.1146
   6440 H          29.8413    4.5128   18.4678 H     1610  UNL1610     0.1146
   6441 N          29.3538    5.3829   20.8997 N.3   1611  UNL1611    -0.3437
   6442 H          28.9121    5.6735   21.7708 H     1611  UNL1611     0.1146
   6443 H          30.0794    6.0725   20.7090 H     1611  UNL1611     0.1146
   6444 H          29.8413    4.5128   21.1086 H     1611  UNL1611     0.1146
   6445 N          29.3538    8.0685    0.1506 N.3   1612  UNL1612    -0.3437
   6446 H          28.9121    8.5925   -0.6036 H     1612  UNL1612     0.1146
   6447 H          30.0794    7.5030   -0.2878 H     1612  UNL1612     0.1146
   6448 H          29.8413    8.7566    0.7226 H     1612  UNL1612     0.1146
   6449 N          29.3538    8.4247    2.7473 N.3   1613  UNL1613    -0.3437
   6450 H          28.9121    7.5529    2.4588 H     1613  UNL1613     0.1146
   6451 H          30.0794    8.1648    3.4139 H     1613  UNL1613     0.1146
   6452 H          29.8413    8.7781    1.9252 H     1613  UNL1613     0.1146
   6453 N          29.3538    8.4247    5.3881 N.3   1614  UNL1614    -0.3437
   6454 H          28.9121    7.5529    5.0996 H     1614  UNL1614     0.1146
   6455 H          30.0794    8.1648    6.0547 H     1614  UNL1614     0.1146
   6456 H          29.8413    8.7781    4.5660 H     1614  UNL1614     0.1146
   6457 N          29.3538    8.2026    7.6956 N.3   1615  UNL1615    -0.3437
   6458 H          28.9121    8.4932    8.5667 H     1615  UNL1615     0.1146
   6459 H          30.0794    8.8922    7.5049 H     1615  UNL1615     0.1146
   6460 H          29.8413    7.3325    7.9045 H     1615  UNL1615     0.1146
   6461 N          27.3538    8.2026   10.3364 N.3   1616  UNL1616    -0.3437
   6462 H          26.9121    8.4932   11.2075 H     1616  UNL1616     0.1146
   6463 H          28.0794    8.8922   10.1457 H     1616  UNL1616     0.1146
   6464 H          27.8413    7.3325   10.5453 H     1616  UNL1616     0.1146
   6465 N          29.4840    8.2026   13.4871 N.3   1617  UNL1617    -0.3437
   6466 H          30.4462    8.4932   13.3197 H     1617  UNL1617     0.1146
   6467 H          28.8970    8.8922   13.0199 H     1617  UNL1617     0.1146
   6468 H          29.3596    7.3325   12.9716 H     1617  UNL1617     0.1146
   6469 N          29.3538    8.2026   15.6181 N.3   1618  UNL1618    -0.3437
   6470 H          28.9121    8.4932   16.4892 H     1618  UNL1618     0.1146
   6471 H          30.0794    8.8922   15.4274 H     1618  UNL1618     0.1146
   6472 H          29.8413    7.3325   15.8270 H     1618  UNL1618     0.1146
   6473 N          29.3538    8.2026   18.2589 N.3   1619  UNL1619    -0.3437
   6474 H          28.9121    8.4932   19.1300 H     1619  UNL1619     0.1146
   6475 H          30.0794    8.8922   18.0682 H     1619  UNL1619     0.1146
   6476 H          29.8413    7.3325   18.4678 H     1619  UNL1619     0.1146
   6477 N          29.3538    8.2026   20.8997 N.3   1620  UNL1620    -0.3437
   6478 H          28.9121    8.4932   21.7708 H     1620  UNL1620     0.1146
   6479 H          30.0794    8.8922   20.7090 H     1620  UNL1620     0.1146
   6480 H          29.8413    7.3325   21.1086 H     1620  UNL1620     0.1146
   6481 N          29.3538   11.2445    0.1065 N.3   1621  UNL1621    -0.3437
   6482 H          28.9121   10.3727   -0.1820 H     1621  UNL1621     0.1146
   6483 H          30.0794   10.9846    0.7731 H     1621  UNL1621     0.1146
   6484 H          29.8413   11.5979   -0.7156 H     1621  UNL1621     0.1146
   6485 N          27.4840   11.0224    2.9238 N.3   1622  UNL1622    -0.3437
   6486 H          28.4462   11.3130    2.7564 H     1622  UNL1622     0.1146
   6487 H          26.8970   11.7120    2.4566 H     1622  UNL1622     0.1146
   6488 H          27.3596   10.1523    2.4083 H     1622  UNL1622     0.1146
   6489 N          29.3538   11.2445    5.3881 N.3   1623  UNL1623    -0.3437
   6490 H          28.9121   10.3727    5.0996 H     1623  UNL1623     0.1146
   6491 H          30.0794   10.9846    6.0547 H     1623  UNL1623     0.1146
   6492 H          29.8413   11.5979    4.5660 H     1623  UNL1623     0.1146
   6493 N          29.3538   11.2445    8.0289 N.3   1624  UNL1624    -0.3437
   6494 H          28.9121   10.3727    7.7404 H     1624  UNL1624     0.1146
   6495 H          30.0794   10.9846    8.6955 H     1624  UNL1624     0.1146
   6496 H          29.8413   11.5979    7.2068 H     1624  UNL1624     0.1146
   6497 N          29.3538   11.0224   10.3364 N.3   1625  UNL1625    -0.3437
   6498 H          28.9121   11.3130   11.2075 H     1625  UNL1625     0.1146
   6499 H          30.0794   11.7120   10.1457 H     1625  UNL1625     0.1146
   6500 H          29.8413   10.1523   10.5453 H     1625  UNL1625     0.1146
   6501 N          29.3538   11.0224   12.9773 N.3   1626  UNL1626    -0.3437
   6502 H          28.9121   11.3130   13.8484 H     1626  UNL1626     0.1146
   6503 H          30.0794   11.7120   12.7866 H     1626  UNL1626     0.1146
   6504 H          29.8413   10.1523   13.1862 H     1626  UNL1626     0.1146
   6505 N          29.3538   10.8883   15.9955 N.3   1627  UNL1627    -0.3437
   6506 H          28.9121   11.4123   15.2414 H     1627  UNL1627     0.1146
   6507 H          30.0794   10.3228   15.5572 H     1627  UNL1627     0.1146
   6508 H          29.8413   11.5764   16.5676 H     1627  UNL1627     0.1146
   6509 N          29.3538   11.2445   18.5922 N.3   1628  UNL1628    -0.3437
   6510 H          28.9121   10.3727   18.3037 H     1628  UNL1628     0.1146
   6511 H          30.0794   10.9846   19.2588 H     1628  UNL1628     0.1146
   6512 H          29.8413   11.5979   17.7701 H     1628  UNL1628     0.1146
   6513 N          29.3538   11.2445   21.2331 N.3   1629  UNL1629    -0.3437
   6514 H          28.9121   10.3727   20.9446 H     1629  UNL1629     0.1146
   6515 H          30.0794   10.9846   21.8997 H     1629  UNL1629     0.1146
   6516 H          29.8413   11.5979   20.4110 H     1629  UNL1629     0.1146
   6517 N          29.3538   14.0643    0.1065 N.3   1630  UNL1630    -0.3437
   6518 H          28.9121   13.1925   -0.1820 H     1630  UNL1630     0.1146
   6519 H          30.0794   13.8044    0.7731 H     1630  UNL1630     0.1146
   6520 H          29.8413   14.4176   -0.7156 H     1630  UNL1630     0.1146
   6521 N          29.3538   14.0643    2.7473 N.3   1631  UNL1631    -0.3437
   6522 H          28.9121   13.1925    2.4588 H     1631  UNL1631     0.1146
   6523 H          30.0794   13.8044    3.4139 H     1631  UNL1631     0.1146
   6524 H          29.8413   14.4176    1.9252 H     1631  UNL1631     0.1146
   6525 N          29.3538   14.0643    5.3881 N.3   1632  UNL1632    -0.3437
   6526 H          28.9121   13.1925    5.0996 H     1632  UNL1632     0.1146
   6527 H          30.0794   13.8044    6.0547 H     1632  UNL1632     0.1146
   6528 H          29.8413   14.4176    4.5660 H     1632  UNL1632     0.1146
   6529 N          29.3538   14.0643    8.0289 N.3   1633  UNL1633    -0.3437
   6530 H          28.9121   13.1925    7.7404 H     1633  UNL1633     0.1146
   6531 H          30.0794   13.8044    8.6955 H     1633  UNL1633     0.1146
   6532 H          29.8413   14.4176    7.2068 H     1633  UNL1633     0.1146
   6533 N          29.3538   13.8422   10.3364 N.3   1634  UNL1634    -0.3437
   6534 H          28.9121   14.1328   11.2075 H     1634  UNL1634     0.1146
   6535 H          30.0794   14.5318   10.1457 H     1634  UNL1634     0.1146
   6536 H          29.8413   12.9721   10.5453 H     1634  UNL1634     0.1146
   6537 N          27.3538   13.8422   12.9773 N.3   1635  UNL1635    -0.3437
   6538 H          26.9121   14.1328   13.8484 H     1635  UNL1635     0.1146
   6539 H          28.0794   14.5318   12.7866 H     1635  UNL1635     0.1146
   6540 H          27.8413   12.9721   13.1862 H     1635  UNL1635     0.1146
   6541 N          27.3538   13.8422   15.6181 N.3   1636  UNL1636    -0.3437
   6542 H          26.9121   14.1328   16.4892 H     1636  UNL1636     0.1146
   6543 H          28.0794   14.5318   15.4274 H     1636  UNL1636     0.1146
   6544 H          27.8413   12.9721   15.8270 H     1636  UNL1636     0.1146
   6545 N          29.3538   14.0643   18.5922 N.3   1637  UNL1637    -0.3437
   6546 H          28.9121   13.1925   18.3037 H     1637  UNL1637     0.1146
   6547 H          30.0794   13.8044   19.2588 H     1637  UNL1637     0.1146
   6548 H          29.8413   14.4176   17.7701 H     1637  UNL1637     0.1146
   6549 N          29.3538   14.0643   21.2331 N.3   1638  UNL1638    -0.3437
   6550 H          28.9121   13.1925   20.9446 H     1638  UNL1638     0.1146
   6551 H          30.0794   13.8044   21.8997 H     1638  UNL1638     0.1146
   6552 H          29.8413   14.4176   20.4110 H     1638  UNL1638     0.1146
   6553 N          29.3538   16.6619    0.4140 N.3   1639  UNL1639    -0.3437
   6554 H          28.9121   16.9525    1.2851 H     1639  UNL1639     0.1146
   6555 H          30.0794   17.3516    0.2233 H     1639  UNL1639     0.1146
   6556 H          29.8413   15.7919    0.6229 H     1639  UNL1639     0.1146
   6557 N          29.3538   16.6619    3.0548 N.3   1640  UNL1640    -0.3437
   6558 H          28.9121   16.9525    3.9259 H     1640  UNL1640     0.1146
   6559 H          30.0794   17.3516    2.8641 H     1640  UNL1640     0.1146
   6560 H          29.8413   15.7919    3.2637 H     1640  UNL1640     0.1146
   6561 N          29.3538   16.6619    5.6956 N.3   1641  UNL1641    -0.3437
   6562 H          28.9121   16.9525    6.5667 H     1641  UNL1641     0.1146
   6563 H          30.0794   17.3516    5.5049 H     1641  UNL1641     0.1146
   6564 H          29.8413   15.7919    5.9045 H     1641  UNL1641     0.1146
   6565 N          29.3538   16.6619   10.3364 N.3   1642  UNL1642    -0.3437
   6566 H          28.9121   16.9525   11.2075 H     1642  UNL1642     0.1146
   6567 H          30.0794   17.3516   10.1457 H     1642  UNL1642     0.1146
   6568 H          29.8413   15.7919   10.5453 H     1642  UNL1642     0.1146
   6569 N          29.3538   16.6619   12.9773 N.3   1643  UNL1643    -0.3437
   6570 H          28.9121   16.9525   13.8484 H     1643  UNL1643     0.1146
   6571 H          30.0794   17.3516   12.7866 H     1643  UNL1643     0.1146
   6572 H          29.8413   15.7919   13.1862 H     1643  UNL1643     0.1146
   6573 N          29.3538   16.6619   15.6181 N.3   1644  UNL1644    -0.3437
   6574 H          28.9121   16.9525   16.4892 H     1644  UNL1644     0.1146
   6575 H          30.0794   17.3516   15.4274 H     1644  UNL1644     0.1146
   6576 H          29.8413   15.7919   15.8270 H     1644  UNL1644     0.1146
   6577 N          29.3538   16.8841   18.5922 N.3   1645  UNL1645    -0.3437
   6578 H          28.9121   16.0123   18.3037 H     1645  UNL1645     0.1146
   6579 H          30.0794   16.6241   19.2588 H     1645  UNL1645     0.1146
   6580 H          29.8413   17.2374   17.7701 H     1645  UNL1645     0.1146
   6581 N          29.3538   16.8841   21.2331 N.3   1646  UNL1646    -0.3437
   6582 H          28.9121   16.0123   20.9446 H     1646  UNL1646     0.1146
   6583 H          30.0794   16.6241   21.8997 H     1646  UNL1646     0.1146
   6584 H          29.8413   17.2374   20.4110 H     1646  UNL1646     0.1146
   6585 N          29.3538   19.7038    0.1065 N.3   1647  UNL1647    -0.3437
   6586 H          28.9121   18.8320   -0.1820 H     1647  UNL1647     0.1146
   6587 H          30.0794   19.4439    0.7731 H     1647  UNL1647     0.1146
   6588 H          29.8413   20.0572   -0.7156 H     1647  UNL1647     0.1146
   6589 N          29.3538   19.7038    2.7473 N.3   1648  UNL1648    -0.3437
   6590 H          28.9121   18.8320    2.4588 H     1648  UNL1648     0.1146
   6591 H          30.0794   19.4439    3.4139 H     1648  UNL1648     0.1146
   6592 H          29.8413   20.0572    1.9252 H     1648  UNL1648     0.1146
   6593 N          29.3538   19.7038    5.3881 N.3   1649  UNL1649    -0.3437
   6594 H          28.9121   18.8320    5.0996 H     1649  UNL1649     0.1146
   6595 H          30.0794   19.4439    6.0547 H     1649  UNL1649     0.1146
   6596 H          29.8413   20.0572    4.5660 H     1649  UNL1649     0.1146
   6597 N          29.3538   19.7038    8.0289 N.3   1650  UNL1650    -0.3437
   6598 H          28.9121   18.8320    7.7404 H     1650  UNL1650     0.1146
   6599 H          30.0794   19.4439    8.6955 H     1650  UNL1650     0.1146
   6600 H          29.8413   20.0572    7.2068 H     1650  UNL1650     0.1146
   6601 N          29.3538   19.4817   10.3364 N.3   1651  UNL1651    -0.3437
   6602 H          28.9121   19.7723   11.2075 H     1651  UNL1651     0.1146
   6603 H          30.0794   20.1713   10.1457 H     1651  UNL1651     0.1146
   6604 H          29.8413   18.6116   10.5453 H     1651  UNL1651     0.1146
   6605 N          29.3538   19.3476   13.3547 N.3   1652  UNL1652    -0.3437
   6606 H          28.9121   19.8716   12.6006 H     1652  UNL1652     0.1146
   6607 H          30.0794   18.7821   12.9163 H     1652  UNL1652     0.1146
   6608 H          29.8413   20.0357   13.9268 H     1652  UNL1652     0.1146
   6609 N          29.4840   19.4817   16.1280 N.3   1653  UNL1653    -0.3437
   6610 H          30.4462   19.7723   15.9605 H     1653  UNL1653     0.1146
   6611 H          28.8970   20.1713   15.6608 H     1653  UNL1653     0.1146
   6612 H          29.3596   18.6116   15.6124 H     1653  UNL1653     0.1146
   6613 N          29.3538   19.7038   18.5922 N.3   1654  UNL1654    -0.3437
   6614 H          28.9121   18.8320   18.3037 H     1654  UNL1654     0.1146
   6615 H          30.0794   19.4439   19.2588 H     1654  UNL1654     0.1146
   6616 H          29.8413   20.0572   17.7701 H     1654  UNL1654     0.1146
   6617 N          29.3538   19.7038   21.2331 N.3   1655  UNL1655    -0.3437
   6618 H          28.9121   18.8320   20.9446 H     1655  UNL1655     0.1146
   6619 H          30.0794   19.4439   21.8997 H     1655  UNL1655     0.1146
   6620 H          29.8413   20.0572   20.4110 H     1655  UNL1655     0.1146
   6621 N          29.3538   22.5236    0.1065 N.3   1656  UNL1656    -0.3437
   6622 H          28.9121   21.6518   -0.1820 H     1656  UNL1656     0.1146
   6623 H          30.0794   22.2637    0.7731 H     1656  UNL1656     0.1146
   6624 H          29.8413   22.8770   -0.7156 H     1656  UNL1656     0.1146
   6625 N          29.3538   22.5236    2.7473 N.3   1657  UNL1657    -0.3437
   6626 H          28.9121   21.6518    2.4588 H     1657  UNL1657     0.1146
   6627 H          30.0794   22.2637    3.4139 H     1657  UNL1657     0.1146
   6628 H          29.8413   22.8770    1.9252 H     1657  UNL1657     0.1146
   6629 N          29.3538   22.5236    5.3881 N.3   1658  UNL1658    -0.3437
   6630 H          28.9121   21.6518    5.0996 H     1658  UNL1658     0.1146
   6631 H          30.0794   22.2637    6.0547 H     1658  UNL1658     0.1146
   6632 H          29.8413   22.8770    4.5660 H     1658  UNL1658     0.1146
   6633 N          29.3538   22.5236    8.0289 N.3   1659  UNL1659    -0.3437
   6634 H          28.9121   21.6518    7.7404 H     1659  UNL1659     0.1146
   6635 H          30.0794   22.2637    8.6955 H     1659  UNL1659     0.1146
   6636 H          29.8413   22.8770    7.2068 H     1659  UNL1659     0.1146
   6637 N          29.3538   22.3015   10.3364 N.3   1660  UNL1660    -0.3437
   6638 H          28.9121   22.5921   11.2075 H     1660  UNL1660     0.1146
   6639 H          30.0794   22.9911   10.1457 H     1660  UNL1660     0.1146
   6640 H          29.8413   21.4314   10.5453 H     1660  UNL1660     0.1146
   6641 N          29.3538   22.3015   12.9773 N.3   1661  UNL1661    -0.3437
   6642 H          28.9121   22.5921   13.8484 H     1661  UNL1661     0.1146
   6643 H          30.0794   22.9911   12.7866 H     1661  UNL1661     0.1146
   6644 H          29.8413   21.4314   13.1862 H     1661  UNL1661     0.1146
   6645 N          29.3538   22.3015   15.6181 N.3   1662  UNL1662    -0.3437
   6646 H          28.9121   22.5921   16.4892 H     1662  UNL1662     0.1146
   6647 H          30.0794   22.9911   15.4274 H     1662  UNL1662     0.1146
   6648 H          29.8413   21.4314   15.8270 H     1662  UNL1662     0.1146
   6649 N          29.3538   22.5236   18.5922 N.3   1663  UNL1663    -0.3437
   6650 H          28.9121   21.6518   18.3037 H     1663  UNL1663     0.1146
   6651 H          30.0794   22.2637   19.2588 H     1663  UNL1663     0.1146
   6652 H          29.8413   22.8770   17.7701 H     1663  UNL1663     0.1146
   6653 N          27.4840   22.3015   21.4096 N.3   1664  UNL1664    -0.3437
   6654 H          28.4462   22.5921   21.2422 H     1664  UNL1664     0.1146
   6655 H          26.8970   22.9911   20.9424 H     1664  UNL1664     0.1146
   6656 H          27.3596   21.4314   20.8940 H     1664  UNL1664     0.1146
   6657 N          29.3538   25.1213    0.4140 N.3   1665  UNL1665    -0.3437
   6658 H          28.9121   25.4119    1.2851 H     1665  UNL1665     0.1146
   6659 H          30.0794   25.8109    0.2233 H     1665  UNL1665     0.1146
   6660 H          29.8413   24.2512    0.6229 H     1665  UNL1665     0.1146
   6661 N          29.6401   25.3198    3.0548 N.3   1666  UNL1666    -0.3437
   6662 H          30.1372   25.4997    3.9259 H     1666  UNL1666     0.1146
   6663 H          29.7583   24.3258    2.8641 H     1666  UNL1666     0.1146
   6664 H          28.6512   25.4499    3.2637 H     1666  UNL1666     0.1146
   6665 N          29.6401   25.3198    5.6956 N.3   1667  UNL1667    -0.3437
   6666 H          30.1372   25.4997    6.5667 H     1667  UNL1667     0.1146
   6667 H          29.7583   24.3258    5.5049 H     1667  UNL1667     0.1146
   6668 H          28.6512   25.4499    5.9045 H     1667  UNL1667     0.1146
   6669 N          29.3538   24.9872   10.7139 N.3   1668  UNL1668    -0.3437
   6670 H          28.9121   25.5111    9.9597 H     1668  UNL1668     0.1146
   6671 H          30.0794   24.4217   10.2755 H     1668  UNL1668     0.1146
   6672 H          29.8413   25.6752   11.2859 H     1668  UNL1668     0.1146
   6673 N          29.3538   25.3434   13.3106 N.3   1669  UNL1669    -0.3437
   6674 H          28.9121   24.4716   13.0221 H     1669  UNL1669     0.1146
   6675 H          30.0794   25.0835   13.9772 H     1669  UNL1669     0.1146
   6676 H          29.8413   25.6967   12.4885 H     1669  UNL1669     0.1146
   6677 N          29.3538   25.1213   15.6181 N.3   1670  UNL1670    -0.3437
   6678 H          28.9121   25.4119   16.4892 H     1670  UNL1670     0.1146
   6679 H          30.0794   25.8109   15.4274 H     1670  UNL1670     0.1146
   6680 H          29.8413   24.2512   15.8270 H     1670  UNL1670     0.1146
   6681 N          29.3538   25.3434   18.5922 N.3   1671  UNL1671    -0.3437
   6682 H          28.9121   24.4716   18.3037 H     1671  UNL1671     0.1146
   6683 H          30.0794   25.0835   19.2588 H     1671  UNL1671     0.1146
   6684 H          29.8413   25.6967   17.7701 H     1671  UNL1671     0.1146
   6685 N          29.3538   25.3434   21.2331 N.3   1672  UNL1672    -0.3437
   6686 H          28.9121   24.4716   20.9446 H     1672  UNL1672     0.1146
   6687 H          30.0794   25.0835   21.8997 H     1672  UNL1672     0.1146
   6688 H          29.8413   25.6967   20.4110 H     1672  UNL1672     0.1146
   6689 N          29.3538   28.1632    0.1065 N.3   1673  UNL1673    -0.3437
   6690 H          28.9121   27.2914   -0.1820 H     1673  UNL1673     0.1146
   6691 H          30.0794   27.9032    0.7731 H     1673  UNL1673     0.1146
   6692 H          29.8413   28.5165   -0.7156 H     1673  UNL1673     0.1146
   6693 N          29.3538   28.1632    2.7473 N.3   1674  UNL1674    -0.3437
   6694 H          28.9121   27.2914    2.4588 H     1674  UNL1674     0.1146
   6695 H          30.0794   27.9032    3.4139 H     1674  UNL1674     0.1146
   6696 H          29.8413   28.5165    1.9252 H     1674  UNL1674     0.1146
   6697 N          29.3538   28.1632    5.3881 N.3   1675  UNL1675    -0.3437
   6698 H          28.9121   27.2914    5.0996 H     1675  UNL1675     0.1146
   6699 H          30.0794   27.9032    6.0547 H     1675  UNL1675     0.1146
   6700 H          29.8413   28.5165    4.5660 H     1675  UNL1675     0.1146
   6701 N          29.3538   28.1632    8.0289 N.3   1676  UNL1676    -0.3437
   6702 H          28.9121   27.2914    7.7404 H     1676  UNL1676     0.1146
   6703 H          30.0794   27.9032    8.6955 H     1676  UNL1676     0.1146
   6704 H          29.8413   28.5165    7.2068 H     1676  UNL1676     0.1146
   6705 N          29.3538   28.1632   10.6698 N.3   1677  UNL1677    -0.3437
   6706 H          28.9121   27.2914   10.3813 H     1677  UNL1677     0.1146
   6707 H          30.0794   27.9032   11.3364 H     1677  UNL1677     0.1146
   6708 H          29.8413   28.5165    9.8477 H     1677  UNL1677     0.1146
   6709 N          29.3538   28.1632   13.3106 N.3   1678  UNL1678    -0.3437
   6710 H          28.9121   27.2914   13.0221 H     1678  UNL1678     0.1146
   6711 H          30.0794   27.9032   13.9772 H     1678  UNL1678     0.1146
   6712 H          29.8413   28.5165   12.4885 H     1678  UNL1678     0.1146
   6713 N          29.3538   28.1632   15.9514 N.3   1679  UNL1679    -0.3437
   6714 H          28.9121   27.2914   15.6629 H     1679  UNL1679     0.1146
   6715 H          30.0794   27.9032   16.6180 H     1679  UNL1679     0.1146
   6716 H          29.8413   28.5165   15.1293 H     1679  UNL1679     0.1146
   6717 N          29.3538   28.1632   18.5922 N.3   1680  UNL1680    -0.3437
   6718 H          28.9121   27.2914   18.3037 H     1680  UNL1680     0.1146
   6719 H          30.0794   27.9032   19.2588 H     1680  UNL1680     0.1146
   6720 H          29.8413   28.5165   17.7701 H     1680  UNL1680     0.1146
   6721 N          29.3538   28.1632   21.2331 N.3   1681  UNL1681    -0.3437
   6722 H          28.9121   27.2914   20.9446 H     1681  UNL1681     0.1146
   6723 H          30.0794   27.9032   21.8997 H     1681  UNL1681     0.1146
   6724 H          29.8413   28.5165   20.4110 H     1681  UNL1681     0.1146
   6725 N          29.3538   30.7608   -0.2269 N.3   1682  UNL1682    -0.3437
   6726 H          28.9121   31.0514    0.6442 H     1682  UNL1682     0.1146
   6727 H          30.0794   31.4504   -0.4176 H     1682  UNL1682     0.1146
   6728 H          29.8413   29.8907   -0.0180 H     1682  UNL1682     0.1146
   6729 N          29.3538   30.7608    2.4140 N.3   1683  UNL1683    -0.3437
   6730 H          28.9121   31.0514    3.2851 H     1683  UNL1683     0.1146
   6731 H          30.0794   31.4504    2.2233 H     1683  UNL1683     0.1146
   6732 H          29.8413   29.8907    2.6229 H     1683  UNL1683     0.1146
   6733 N          29.3538   30.7608    5.0548 N.3   1684  UNL1684    -0.3437
   6734 H          28.9121   31.0514    5.9259 H     1684  UNL1684     0.1146
   6735 H          30.0794   31.4504    4.8641 H     1684  UNL1684     0.1146
   6736 H          29.8413   29.8907    5.2637 H     1684  UNL1684     0.1146
   6737 N          29.3538   30.7608    7.6956 N.3   1685  UNL1685    -0.3437
   6738 H          28.9121   31.0514    8.5667 H     1685  UNL1685     0.1146
   6739 H          30.0794   31.4504    7.5049 H     1685  UNL1685     0.1146
   6740 H          29.8413   29.8907    7.9045 H     1685  UNL1685     0.1146
   6741 N          27.3538   30.7608   10.3364 N.3   1686  UNL1686    -0.3437
   6742 H          26.9121   31.0514   11.2075 H     1686  UNL1686     0.1146
   6743 H          28.0794   31.4504   10.1457 H     1686  UNL1686     0.1146
   6744 H          27.8413   29.8907   10.5453 H     1686  UNL1686     0.1146
   6745 N          29.3538   30.7608   12.9773 N.3   1687  UNL1687    -0.3437
   6746 H          28.9121   31.0514   13.8484 H     1687  UNL1687     0.1146
   6747 H          30.0794   31.4504   12.7866 H     1687  UNL1687     0.1146
   6748 H          29.8413   29.8907   13.1862 H     1687  UNL1687     0.1146
   6749 N          29.3538   30.7608   15.6181 N.3   1688  UNL1688    -0.3437
   6750 H          28.9121   31.0514   16.4892 H     1688  UNL1688     0.1146
   6751 H          30.0794   31.4504   15.4274 H     1688  UNL1688     0.1146
   6752 H          29.8413   29.8907   15.8270 H     1688  UNL1688     0.1146
   6753 N          29.3538   30.7608   18.2589 N.3   1689  UNL1689    -0.3437
   6754 H          28.9121   31.0514   19.1300 H     1689  UNL1689     0.1146
   6755 H          30.0794   31.4504   18.0682 H     1689  UNL1689     0.1146
   6756 H          29.8413   29.8907   18.4678 H     1689  UNL1689     0.1146
   6757 N          29.3538   30.7608   20.8997 N.3   1690  UNL1690    -0.3437
   6758 H          28.9121   31.0514   21.7708 H     1690  UNL1690     0.1146
   6759 H          30.0794   31.4504   20.7090 H     1690  UNL1690     0.1146
   6760 H          29.8413   29.8907   21.1086 H     1690  UNL1690     0.1146
   6761 N          29.3538   33.5806   -0.2269 N.3   1691  UNL1691    -0.3437
   6762 H          28.9121   33.8712    0.6442 H     1691  UNL1691     0.1146
   6763 H          30.0794   34.2702   -0.4176 H     1691  UNL1691     0.1146
   6764 H          29.8413   32.7105   -0.0180 H     1691  UNL1691     0.1146
   6765 N          29.3538   33.5806    2.4140 N.3   1692  UNL1692    -0.3437
   6766 H          28.9121   33.8712    3.2851 H     1692  UNL1692     0.1146
   6767 H          30.0794   34.2702    2.2233 H     1692  UNL1692     0.1146
   6768 H          29.8413   32.7105    2.6229 H     1692  UNL1692     0.1146
   6769 N          29.3538   33.5806    5.0548 N.3   1693  UNL1693    -0.3437
   6770 H          28.9121   33.8712    5.9259 H     1693  UNL1693     0.1146
   6771 H          30.0794   34.2702    4.8641 H     1693  UNL1693     0.1146
   6772 H          29.8413   32.7105    5.2637 H     1693  UNL1693     0.1146
   6773 N          29.3538   33.5806    7.6956 N.3   1694  UNL1694    -0.3437
   6774 H          28.9121   33.8712    8.5667 H     1694  UNL1694     0.1146
   6775 H          30.0794   34.2702    7.5049 H     1694  UNL1694     0.1146
   6776 H          29.8413   32.7105    7.9045 H     1694  UNL1694     0.1146
   6777 N          29.3538   33.5806   10.3364 N.3   1695  UNL1695    -0.3437
   6778 H          28.9121   33.8712   11.2075 H     1695  UNL1695     0.1146
   6779 H          30.0794   34.2702   10.1457 H     1695  UNL1695     0.1146
   6780 H          29.8413   32.7105   10.5453 H     1695  UNL1695     0.1146
   6781 N          29.3538   33.5806   12.9773 N.3   1696  UNL1696    -0.3437
   6782 H          28.9121   33.8712   13.8484 H     1696  UNL1696     0.1146
   6783 H          30.0794   34.2702   12.7866 H     1696  UNL1696     0.1146
   6784 H          29.8413   32.7105   13.1862 H     1696  UNL1696     0.1146
   6785 N          29.3538   33.5806   15.6181 N.3   1697  UNL1697    -0.3437
   6786 H          28.9121   33.8712   16.4892 H     1697  UNL1697     0.1146
   6787 H          30.0794   34.2702   15.4274 H     1697  UNL1697     0.1146
   6788 H          29.8413   32.7105   15.8270 H     1697  UNL1697     0.1146
   6789 N          29.3538   33.5806   18.2589 N.3   1698  UNL1698    -0.3437
   6790 H          28.9121   33.8712   19.1300 H     1698  UNL1698     0.1146
   6791 H          30.0794   34.2702   18.0682 H     1698  UNL1698     0.1146
   6792 H          29.8413   32.7105   18.4678 H     1698  UNL1698     0.1146
   6793 N          29.3538   33.5806   20.8997 N.3   1699  UNL1699    -0.3437
   6794 H          28.9121   33.8712   21.7708 H     1699  UNL1699     0.1146
   6795 H          30.0794   34.2702   20.7090 H     1699  UNL1699     0.1146
   6796 H          29.8413   32.7105   21.1086 H     1699  UNL1699     0.1146
   6797 N          29.3538   36.2663    0.1506 N.3   1700  UNL1700    -0.3437
   6798 H          28.9121   36.7902   -0.6036 H     1700  UNL1700     0.1146
   6799 H          30.0794   35.7008   -0.2878 H     1700  UNL1700     0.1146
   6800 H          29.8413   36.9543    0.7226 H     1700  UNL1700     0.1146
   6801 N          29.3538   36.6225    2.7473 N.3   1701  UNL1701    -0.3437
   6802 H          28.9121   35.7507    2.4588 H     1701  UNL1701     0.1146
   6803 H          30.0794   36.3626    3.4139 H     1701  UNL1701     0.1146
   6804 H          29.8413   36.9758    1.9252 H     1701  UNL1701     0.1146
   6805 N          29.3538   36.6225    5.3881 N.3   1702  UNL1702    -0.3437
   6806 H          28.9121   35.7507    5.0996 H     1702  UNL1702     0.1146
   6807 H          30.0794   36.3626    6.0547 H     1702  UNL1702     0.1146
   6808 H          29.8413   36.9758    4.5660 H     1702  UNL1702     0.1146
   6809 N          29.3538   36.4004    7.6956 N.3   1703  UNL1703    -0.3437
   6810 H          28.9121   36.6910    8.5667 H     1703  UNL1703     0.1146
   6811 H          30.0794   37.0900    7.5049 H     1703  UNL1703     0.1146
   6812 H          29.8413   35.5303    7.9045 H     1703  UNL1703     0.1146
   6813 N          29.3538   36.4004   10.3364 N.3   1704  UNL1704    -0.3437
   6814 H          28.9121   36.6910   11.2075 H     1704  UNL1704     0.1146
   6815 H          30.0794   37.0900   10.1457 H     1704  UNL1704     0.1146
   6816 H          29.8413   35.5303   10.5453 H     1704  UNL1704     0.1146
   6817 N          29.3538   36.4004   12.9773 N.3   1705  UNL1705    -0.3437
   6818 H          28.9121   36.6910   13.8484 H     1705  UNL1705     0.1146
   6819 H          30.0794   37.0900   12.7866 H     1705  UNL1705     0.1146
   6820 H          29.8413   35.5303   13.1862 H     1705  UNL1705     0.1146
   6821 N          29.3538   36.4004   15.6181 N.3   1706  UNL1706    -0.3437
   6822 H          28.9121   36.6910   16.4892 H     1706  UNL1706     0.1146
   6823 H          30.0794   37.0900   15.4274 H     1706  UNL1706     0.1146
   6824 H          29.8413   35.5303   15.8270 H     1706  UNL1706     0.1146
   6825 N          29.3538   36.4004   18.2589 N.3   1707  UNL1707    -0.3437
   6826 H          28.9121   36.6910   19.1300 H     1707  UNL1707     0.1146
   6827 H          30.0794   37.0900   18.0682 H     1707  UNL1707     0.1146
   6828 H          29.8413   35.5303   18.4678 H     1707  UNL1707     0.1146
   6829 N          29.3538   36.4004   20.8997 N.3   1708  UNL1708    -0.3437
   6830 H          28.9121   36.6910   21.7708 H     1708  UNL1708     0.1146
   6831 H          30.0794   37.0900   20.7090 H     1708  UNL1708     0.1146
   6832 H          29.8413   35.5303   21.1086 H     1708  UNL1708     0.1146
   6833 N          29.3538   39.2202   -0.2269 N.3   1709  UNL1709    -0.3437
   6834 H          28.9121   39.5108    0.6442 H     1709  UNL1709     0.1146
   6835 H          30.0794   39.9098   -0.4176 H     1709  UNL1709     0.1146
   6836 H          29.8413   38.3501   -0.0180 H     1709  UNL1709     0.1146
   6837 N          29.3538   39.2202    2.4140 N.3   1710  UNL1710    -0.3437
   6838 H          28.9121   39.5108    3.2851 H     1710  UNL1710     0.1146
   6839 H          30.0794   39.9098    2.2233 H     1710  UNL1710     0.1146
   6840 H          29.8413   38.3501    2.6229 H     1710  UNL1710     0.1146
   6841 N          29.3538   39.2202    5.0548 N.3   1711  UNL1711    -0.3437
   6842 H          28.9121   39.5108    5.9259 H     1711  UNL1711     0.1146
   6843 H          30.0794   39.9098    4.8641 H     1711  UNL1711     0.1146
   6844 H          29.8413   38.3501    5.2637 H     1711  UNL1711     0.1146
   6845 N          29.3538   39.2202    7.6956 N.3   1712  UNL1712    -0.3437
   6846 H          28.9121   39.5108    8.5667 H     1712  UNL1712     0.1146
   6847 H          30.0794   39.9098    7.5049 H     1712  UNL1712     0.1146
   6848 H          29.8413   38.3501    7.9045 H     1712  UNL1712     0.1146
   6849 N          29.3538   39.2202   10.3364 N.3   1713  UNL1713    -0.3437
   6850 H          28.9121   39.5108   11.2075 H     1713  UNL1713     0.1146
   6851 H          30.0794   39.9098   10.1457 H     1713  UNL1713     0.1146
   6852 H          29.8413   38.3501   10.5453 H     1713  UNL1713     0.1146
   6853 N          29.3538   39.2202   12.9773 N.3   1714  UNL1714    -0.3437
   6854 H          28.9121   39.5108   13.8484 H     1714  UNL1714     0.1146
   6855 H          30.0794   39.9098   12.7866 H     1714  UNL1714     0.1146
   6856 H          29.8413   38.3501   13.1862 H     1714  UNL1714     0.1146
   6857 N          29.3538   39.2202   15.6181 N.3   1715  UNL1715    -0.3437
   6858 H          28.9121   39.5108   16.4892 H     1715  UNL1715     0.1146
   6859 H          30.0794   39.9098   15.4274 H     1715  UNL1715     0.1146
   6860 H          29.8413   38.3501   15.8270 H     1715  UNL1715     0.1146
   6861 N          29.3538   39.2202   18.2589 N.3   1716  UNL1716    -0.3437
   6862 H          28.9121   39.5108   19.1300 H     1716  UNL1716     0.1146
   6863 H          30.0794   39.9098   18.0682 H     1716  UNL1716     0.1146
   6864 H          29.8413   38.3501   18.4678 H     1716  UNL1716     0.1146
   6865 N          29.3538   39.2202   20.8997 N.3   1717  UNL1717    -0.3437
   6866 H          28.9121   39.5108   21.7708 H     1717  UNL1717     0.1146
   6867 H          30.0794   39.9098   20.7090 H     1717  UNL1717     0.1146
   6868 H          29.8413   38.3501   21.1086 H     1717  UNL1717     0.1146
   6869 N          31.8855   -0.2567   -0.2269 N.3   1718  UNL1718    -0.3437
   6870 H          31.4438    0.0339    0.6442 H     1718  UNL1718     0.1146
   6871 H          32.6111    0.4329   -0.4176 H     1718  UNL1718     0.1146
   6872 H          32.3730   -1.1268   -0.0180 H     1718  UNL1718     0.1146
   6873 N          31.8855   -0.2567    2.4140 N.3   1719  UNL1719    -0.3437
   6874 H          31.4438    0.0339    3.2851 H     1719  UNL1719     0.1146
   6875 H          32.6111    0.4329    2.2233 H     1719  UNL1719     0.1146
   6876 H          32.3730   -1.1268    2.6229 H     1719  UNL1719     0.1146
   6877 N          31.8855   -0.2567    5.0548 N.3   1720  UNL1720    -0.3437
   6878 H          31.4438    0.0339    5.9259 H     1720  UNL1720     0.1146
   6879 H          32.6111    0.4329    4.8641 H     1720  UNL1720     0.1146
   6880 H          32.3730   -1.1268    5.2637 H     1720  UNL1720     0.1146
   6881 N          31.8855   -0.2567    7.6956 N.3   1721  UNL1721    -0.3437
   6882 H          31.4438    0.0339    8.5667 H     1721  UNL1721     0.1146
   6883 H          32.6111    0.4329    7.5049 H     1721  UNL1721     0.1146
   6884 H          32.3730   -1.1268    7.9045 H     1721  UNL1721     0.1146
   6885 N          31.8855   -0.2567   10.3364 N.3   1722  UNL1722    -0.3437
   6886 H          31.4438    0.0339   11.2075 H     1722  UNL1722     0.1146
   6887 H          32.6111    0.4329   10.1457 H     1722  UNL1722     0.1146
   6888 H          32.3730   -1.1268   10.5453 H     1722  UNL1722     0.1146
   6889 N          31.8855   -0.2567   12.9773 N.3   1723  UNL1723    -0.3437
   6890 H          31.4438    0.0339   13.8484 H     1723  UNL1723     0.1146
   6891 H          32.6111    0.4329   12.7866 H     1723  UNL1723     0.1146
   6892 H          32.3730   -1.1268   13.1862 H     1723  UNL1723     0.1146
   6893 N          31.8855   -0.2567   15.6181 N.3   1724  UNL1724    -0.3437
   6894 H          31.4438    0.0339   16.4892 H     1724  UNL1724     0.1146
   6895 H          32.6111    0.4329   15.4274 H     1724  UNL1724     0.1146
   6896 H          32.3730   -1.1268   15.8270 H     1724  UNL1724     0.1146
   6897 N          31.8855   -0.2567   18.2589 N.3   1725  UNL1725    -0.3437
   6898 H          31.4438    0.0339   19.1300 H     1725  UNL1725     0.1146
   6899 H          32.6111    0.4329   18.0682 H     1725  UNL1725     0.1146
   6900 H          32.3730   -1.1268   18.4678 H     1725  UNL1725     0.1146
   6901 N          31.8855   -0.2567   20.8997 N.3   1726  UNL1726    -0.3437
   6902 H          31.4438    0.0339   21.7708 H     1726  UNL1726     0.1146
   6903 H          32.6111    0.4329   20.7090 H     1726  UNL1726     0.1146
   6904 H          32.3730   -1.1268   21.1086 H     1726  UNL1726     0.1146
   6905 N          31.8855    2.5631   -0.2269 N.3   1727  UNL1727    -0.3437
   6906 H          31.4438    2.8537    0.6442 H     1727  UNL1727     0.1146
   6907 H          32.6111    3.2527   -0.4176 H     1727  UNL1727     0.1146
   6908 H          32.3730    1.6930   -0.0180 H     1727  UNL1727     0.1146
   6909 N          31.8855    2.5631    2.4140 N.3   1728  UNL1728    -0.3437
   6910 H          31.4438    2.8537    3.2851 H     1728  UNL1728     0.1146
   6911 H          32.6111    3.2527    2.2233 H     1728  UNL1728     0.1146
   6912 H          32.3730    1.6930    2.6229 H     1728  UNL1728     0.1146
   6913 N          31.8855    2.5631    5.0548 N.3   1729  UNL1729    -0.3437
   6914 H          31.4438    2.8537    5.9259 H     1729  UNL1729     0.1146
   6915 H          32.6111    3.2527    4.8641 H     1729  UNL1729     0.1146
   6916 H          32.3730    1.6930    5.2637 H     1729  UNL1729     0.1146
   6917 N          31.8855    2.5631    7.6956 N.3   1730  UNL1730    -0.3437
   6918 H          31.4438    2.8537    8.5667 H     1730  UNL1730     0.1146
   6919 H          32.6111    3.2527    7.5049 H     1730  UNL1730     0.1146
   6920 H          32.3730    1.6930    7.9045 H     1730  UNL1730     0.1146
   6921 N          31.8855    2.5631   10.3364 N.3   1731  UNL1731    -0.3437
   6922 H          31.4438    2.8537   11.2075 H     1731  UNL1731     0.1146
   6923 H          32.6111    3.2527   10.1457 H     1731  UNL1731     0.1146
   6924 H          32.3730    1.6930   10.5453 H     1731  UNL1731     0.1146
   6925 N          31.8855    2.5631   12.9773 N.3   1732  UNL1732    -0.3437
   6926 H          31.4438    2.8537   13.8484 H     1732  UNL1732     0.1146
   6927 H          32.6111    3.2527   12.7866 H     1732  UNL1732     0.1146
   6928 H          32.3730    1.6930   13.1862 H     1732  UNL1732     0.1146
   6929 N          31.8855    2.5631   15.6181 N.3   1733  UNL1733    -0.3437
   6930 H          31.4438    2.8537   16.4892 H     1733  UNL1733     0.1146
   6931 H          32.6111    3.2527   15.4274 H     1733  UNL1733     0.1146
   6932 H          32.3730    1.6930   15.8270 H     1733  UNL1733     0.1146
   6933 N          31.8855    2.5631   18.2589 N.3   1734  UNL1734    -0.3437
   6934 H          31.4438    2.8537   19.1300 H     1734  UNL1734     0.1146
   6935 H          32.6111    3.2527   18.0682 H     1734  UNL1734     0.1146
   6936 H          32.3730    1.6930   18.4678 H     1734  UNL1734     0.1146
   6937 N          31.8855    2.5631   20.8997 N.3   1735  UNL1735    -0.3437
   6938 H          31.4438    2.8537   21.7708 H     1735  UNL1735     0.1146
   6939 H          32.6111    3.2527   20.7090 H     1735  UNL1735     0.1146
   6940 H          32.3730    1.6930   21.1086 H     1735  UNL1735     0.1146
   6941 N          31.8855    5.3829   -0.2269 N.3   1736  UNL1736    -0.3437
   6942 H          31.4438    5.6735    0.6442 H     1736  UNL1736     0.1146
   6943 H          32.6111    6.0725   -0.4176 H     1736  UNL1736     0.1146
   6944 H          32.3730    4.5128   -0.0180 H     1736  UNL1736     0.1146
   6945 N          31.8855    5.3829    2.4140 N.3   1737  UNL1737    -0.3437
   6946 H          31.4438    5.6735    3.2851 H     1737  UNL1737     0.1146
   6947 H          32.6111    6.0725    2.2233 H     1737  UNL1737     0.1146
   6948 H          32.3730    4.5128    2.6229 H     1737  UNL1737     0.1146
   6949 N          31.8855    5.3829    5.0548 N.3   1738  UNL1738    -0.3437
   6950 H          31.4438    5.6735    5.9259 H     1738  UNL1738     0.1146
   6951 H          32.6111    6.0725    4.8641 H     1738  UNL1738     0.1146
   6952 H          32.3730    4.5128    5.2637 H     1738  UNL1738     0.1146
   6953 N          31.8855    5.3829    7.6956 N.3   1739  UNL1739    -0.3437
   6954 H          31.4438    5.6735    8.5667 H     1739  UNL1739     0.1146
   6955 H          32.6111    6.0725    7.5049 H     1739  UNL1739     0.1146
   6956 H          32.3730    4.5128    7.9045 H     1739  UNL1739     0.1146
   6957 N          31.8855    5.3829   10.3364 N.3   1740  UNL1740    -0.3437
   6958 H          31.4438    5.6735   11.2075 H     1740  UNL1740     0.1146
   6959 H          32.6111    6.0725   10.1457 H     1740  UNL1740     0.1146
   6960 H          32.3730    4.5128   10.5453 H     1740  UNL1740     0.1146
   6961 N          31.8855    5.3829   12.9773 N.3   1741  UNL1741    -0.3437
   6962 H          31.4438    5.6735   13.8484 H     1741  UNL1741     0.1146
   6963 H          32.6111    6.0725   12.7866 H     1741  UNL1741     0.1146
   6964 H          32.3730    4.5128   13.1862 H     1741  UNL1741     0.1146
   6965 N          31.8855    5.3829   15.6181 N.3   1742  UNL1742    -0.3437
   6966 H          31.4438    5.6735   16.4892 H     1742  UNL1742     0.1146
   6967 H          32.6111    6.0725   15.4274 H     1742  UNL1742     0.1146
   6968 H          32.3730    4.5128   15.8270 H     1742  UNL1742     0.1146
   6969 N          31.8855    5.3829   18.2589 N.3   1743  UNL1743    -0.3437
   6970 H          31.4438    5.6735   19.1300 H     1743  UNL1743     0.1146
   6971 H          32.6111    6.0725   18.0682 H     1743  UNL1743     0.1146
   6972 H          32.3730    4.5128   18.4678 H     1743  UNL1743     0.1146
   6973 N          31.8855    5.3829   20.8997 N.3   1744  UNL1744    -0.3437
   6974 H          31.4438    5.6735   21.7708 H     1744  UNL1744     0.1146
   6975 H          32.6111    6.0725   20.7090 H     1744  UNL1744     0.1146
   6976 H          32.3730    4.5128   21.1086 H     1744  UNL1744     0.1146
   6977 N          32.1454    8.0379    0.8506 N.3   1745  UNL1745    -0.3437
   6978 H          32.9656    8.3574    0.3373 H     1745  UNL1745     0.1146
   6979 H          31.6898    8.8783    1.2034 H     1745  UNL1745     0.1146
   6980 H          31.5128    7.6470    0.1539 H     1745  UNL1745     0.1146
   6981 N          31.8301    8.3888    3.3009 N.3   1746  UNL1746    -0.3437
   6982 H          32.2462    8.1702    4.2050 H     1746  UNL1746     0.1146
   6983 H          32.5541    8.8674    2.7669 H     1746  UNL1746     0.1146
   6984 H          31.6832    7.4942    2.8357 H     1746  UNL1746     0.1146
   6985 N          31.8018    8.2196    7.8143 N.3   1747  UNL1747    -0.3437
   6986 H          31.9395    7.6261    8.6311 H     1747  UNL1747     0.1146
   6987 H          32.0809    9.1576    8.0985 H     1747  UNL1747     0.1146
   6988 H          32.4915    7.9173    7.1279 H     1747  UNL1747     0.1146
   6989 N          30.0157    8.2026   10.8463 N.3   1748  UNL1748    -0.3437
   6990 H          30.9779    8.4932   10.6789 H     1748  UNL1748     0.1146
   6991 H          29.4287    8.8922   10.3791 H     1748  UNL1748     0.1146
   6992 H          29.8913    7.3325   10.3307 H     1748  UNL1748     0.1146
   6993 N          31.8855    8.2026   12.9773 N.3   1749  UNL1749    -0.3437
   6994 H          31.4438    8.4932   13.8484 H     1749  UNL1749     0.1146
   6995 H          32.6111    8.8922   12.7866 H     1749  UNL1749     0.1146
   6996 H          32.3730    7.3325   13.1862 H     1749  UNL1749     0.1146
   6997 N          31.8855    8.2026   15.6181 N.3   1750  UNL1750    -0.3437
   6998 H          31.4438    8.4932   16.4892 H     1750  UNL1750     0.1146
   6999 H          32.6111    8.8922   15.4274 H     1750  UNL1750     0.1146
   7000 H          32.3730    7.3325   15.8270 H     1750  UNL1750     0.1146
   7001 N          31.8855    8.2026   18.2589 N.3   1751  UNL1751    -0.3437
   7002 H          31.4438    8.4932   19.1300 H     1751  UNL1751     0.1146
   7003 H          32.6111    8.8922   18.0682 H     1751  UNL1751     0.1146
   7004 H          32.3730    7.3325   18.4678 H     1751  UNL1751     0.1146
   7005 N          31.8855    8.2026   20.8997 N.3   1752  UNL1752    -0.3437
   7006 H          31.4438    8.4932   21.7708 H     1752  UNL1752     0.1146
   7007 H          32.6111    8.8922   20.7090 H     1752  UNL1752     0.1146
   7008 H          32.3730    7.3325   21.1086 H     1752  UNL1752     0.1146
   7009 N          31.8855   11.2445    0.1065 N.3   1753  UNL1753    -0.3437
   7010 H          31.4438   10.3727   -0.1820 H     1753  UNL1753     0.1146
   7011 H          32.6111   10.9846    0.7731 H     1753  UNL1753     0.1146
   7012 H          32.3730   11.5979   -0.7156 H     1753  UNL1753     0.1146
   7013 N          30.0632   11.2768    2.4474 N.3   1754  UNL1754    -0.3437
   7014 H          29.2572   11.2269    3.0688 H     1754  UNL1754     0.1146
   7015 H          30.8820   11.3216    3.0524 H     1754  UNL1754     0.1146
   7016 H          30.1111   10.3744    1.9765 H     1754  UNL1754     0.1146
   7017 N          31.8855   11.2445    5.3881 N.3   1755  UNL1755    -0.3437
   7018 H          31.4438   10.3727    5.0996 H     1755  UNL1755     0.1146
   7019 H          32.6111   10.9846    6.0547 H     1755  UNL1755     0.1146
   7020 H          32.3730   11.5979    4.5660 H     1755  UNL1755     0.1146
   7021 N          31.8855   11.2445    8.0289 N.3   1756  UNL1756    -0.3437
   7022 H          31.4438   10.3727    7.7404 H     1756  UNL1756     0.1146
   7023 H          32.6111   10.9846    8.6955 H     1756  UNL1756     0.1146
   7024 H          32.3730   11.5979    7.2068 H     1756  UNL1756     0.1146
   7025 N          31.8855   11.0224   10.3364 N.3   1757  UNL1757    -0.3437
   7026 H          31.4438   11.3130   11.2075 H     1757  UNL1757     0.1146
   7027 H          32.6111   11.7120   10.1457 H     1757  UNL1757     0.1146
   7028 H          32.3730   10.1523   10.5453 H     1757  UNL1757     0.1146
   7029 N          31.8855   10.8883   13.3547 N.3   1758  UNL1758    -0.3437
   7030 H          31.4438   11.4123   12.6006 H     1758  UNL1758     0.1146
   7031 H          32.6111   10.3228   12.9163 H     1758  UNL1758     0.1146
   7032 H          32.3730   11.5764   13.9268 H     1758  UNL1758     0.1146
   7033 N          31.8855   11.2445   15.9514 N.3   1759  UNL1759    -0.3437
   7034 H          31.4438   10.3727   15.6629 H     1759  UNL1759     0.1146
   7035 H          32.6111   10.9846   16.6180 H     1759  UNL1759     0.1146
   7036 H          32.3730   11.5979   15.1293 H     1759  UNL1759     0.1146
   7037 N          31.8855   11.2445   18.5922 N.3   1760  UNL1760    -0.3437
   7038 H          31.4438   10.3727   18.3037 H     1760  UNL1760     0.1146
   7039 H          32.6111   10.9846   19.2588 H     1760  UNL1760     0.1146
   7040 H          32.3730   11.5979   17.7701 H     1760  UNL1760     0.1146
   7041 N          31.8855   11.2445   21.2331 N.3   1761  UNL1761    -0.3437
   7042 H          31.4438   10.3727   20.9446 H     1761  UNL1761     0.1146
   7043 H          32.6111   10.9846   21.8997 H     1761  UNL1761     0.1146
   7044 H          32.3730   11.5979   20.4110 H     1761  UNL1761     0.1146
   7045 N          31.8855   14.0643    0.1065 N.3   1762  UNL1762    -0.3437
   7046 H          31.4438   13.1925   -0.1820 H     1762  UNL1762     0.1146
   7047 H          32.6111   13.8044    0.7731 H     1762  UNL1762     0.1146
   7048 H          32.3730   14.4176   -0.7156 H     1762  UNL1762     0.1146
   7049 N          31.8855   14.0643    2.7473 N.3   1763  UNL1763    -0.3437
   7050 H          31.4438   13.1925    2.4588 H     1763  UNL1763     0.1146
   7051 H          32.6111   13.8044    3.4139 H     1763  UNL1763     0.1146
   7052 H          32.3730   14.4176    1.9252 H     1763  UNL1763     0.1146
   7053 N          31.8855   14.0643    5.3881 N.3   1764  UNL1764    -0.3437
   7054 H          31.4438   13.1925    5.0996 H     1764  UNL1764     0.1146
   7055 H          32.6111   13.8044    6.0547 H     1764  UNL1764     0.1146
   7056 H          32.3730   14.4176    4.5660 H     1764  UNL1764     0.1146
   7057 N          31.8855   14.0643    8.0289 N.3   1765  UNL1765    -0.3437
   7058 H          31.4438   13.1925    7.7404 H     1765  UNL1765     0.1146
   7059 H          32.6111   13.8044    8.6955 H     1765  UNL1765     0.1146
   7060 H          32.3730   14.4176    7.2068 H     1765  UNL1765     0.1146
   7061 N          31.8855   13.8422   10.3364 N.3   1766  UNL1766    -0.3437
   7062 H          31.4438   14.1328   11.2075 H     1766  UNL1766     0.1146
   7063 H          32.6111   14.5318   10.1457 H     1766  UNL1766     0.1146
   7064 H          32.3730   12.9721   10.5453 H     1766  UNL1766     0.1146
   7065 N          29.8855   13.8422   12.9773 N.3   1767  UNL1767    -0.3437
   7066 H          29.4438   14.1328   13.8484 H     1767  UNL1767     0.1146
   7067 H          30.6111   14.5318   12.7866 H     1767  UNL1767     0.1146
   7068 H          30.3730   12.9721   13.1862 H     1767  UNL1767     0.1146
   7069 N          29.8855   13.8422   15.6181 N.3   1768  UNL1768    -0.3437
   7070 H          29.4438   14.1328   16.4892 H     1768  UNL1768     0.1146
   7071 H          30.6111   14.5318   15.4274 H     1768  UNL1768     0.1146
   7072 H          30.3730   12.9721   15.8270 H     1768  UNL1768     0.1146
   7073 N          31.8855   14.0643   18.5922 N.3   1769  UNL1769    -0.3437
   7074 H          31.4438   13.1925   18.3037 H     1769  UNL1769     0.1146
   7075 H          32.6111   13.8044   19.2588 H     1769  UNL1769     0.1146
   7076 H          32.3730   14.4176   17.7701 H     1769  UNL1769     0.1146
   7077 N          31.8855   14.0643   21.2331 N.3   1770  UNL1770    -0.3437
   7078 H          31.4438   13.1925   20.9446 H     1770  UNL1770     0.1146
   7079 H          32.6111   13.8044   21.8997 H     1770  UNL1770     0.1146
   7080 H          32.3730   14.4176   20.4110 H     1770  UNL1770     0.1146
   7081 N          31.8855   16.6619    0.4140 N.3   1771  UNL1771    -0.3437
   7082 H          31.4438   16.9525    1.2851 H     1771  UNL1771     0.1146
   7083 H          32.6111   17.3516    0.2233 H     1771  UNL1771     0.1146
   7084 H          32.3730   15.7919    0.6229 H     1771  UNL1771     0.1146
   7085 N          31.8855   16.6619    3.0548 N.3   1772  UNL1772    -0.3437
   7086 H          31.4438   16.9525    3.9259 H     1772  UNL1772     0.1146
   7087 H          32.6111   17.3516    2.8641 H     1772  UNL1772     0.1146
   7088 H          32.3730   15.7919    3.2637 H     1772  UNL1772     0.1146
   7089 N          31.8855   16.6619    5.6956 N.3   1773  UNL1773    -0.3437
   7090 H          31.4438   16.9525    6.5667 H     1773  UNL1773     0.1146
   7091 H          32.6111   17.3516    5.5049 H     1773  UNL1773     0.1146
   7092 H          32.3730   15.7919    5.9045 H     1773  UNL1773     0.1146
   7093 N          31.8855   16.6619   10.3364 N.3   1774  UNL1774    -0.3437
   7094 H          31.4438   16.9525   11.2075 H     1774  UNL1774     0.1146
   7095 H          32.6111   17.3516   10.1457 H     1774  UNL1774     0.1146
   7096 H          32.3730   15.7919   10.5453 H     1774  UNL1774     0.1146
   7097 N          31.8855   16.6619   12.9773 N.3   1775  UNL1775    -0.3437
   7098 H          31.4438   16.9525   13.8484 H     1775  UNL1775     0.1146
   7099 H          32.6111   17.3516   12.7866 H     1775  UNL1775     0.1146
   7100 H          32.3730   15.7919   13.1862 H     1775  UNL1775     0.1146
   7101 N          31.8855   16.6619   15.6181 N.3   1776  UNL1776    -0.3437
   7102 H          31.4438   16.9525   16.4892 H     1776  UNL1776     0.1146
   7103 H          32.6111   17.3516   15.4274 H     1776  UNL1776     0.1146
   7104 H          32.3730   15.7919   15.8270 H     1776  UNL1776     0.1146
   7105 N          31.8855   16.8841   18.5922 N.3   1777  UNL1777    -0.3437
   7106 H          31.4438   16.0123   18.3037 H     1777  UNL1777     0.1146
   7107 H          32.6111   16.6241   19.2588 H     1777  UNL1777     0.1146
   7108 H          32.3730   17.2374   17.7701 H     1777  UNL1777     0.1146
   7109 N          31.8855   16.8841   21.2331 N.3   1778  UNL1778    -0.3437
   7110 H          31.4438   16.0123   20.9446 H     1778  UNL1778     0.1146
   7111 H          32.6111   16.6241   21.8997 H     1778  UNL1778     0.1146
   7112 H          32.3730   17.2374   20.4110 H     1778  UNL1778     0.1146
   7113 N          31.8855   19.7038    0.1065 N.3   1779  UNL1779    -0.3437
   7114 H          31.4438   18.8320   -0.1820 H     1779  UNL1779     0.1146
   7115 H          32.6111   19.4439    0.7731 H     1779  UNL1779     0.1146
   7116 H          32.3730   20.0572   -0.7156 H     1779  UNL1779     0.1146
   7117 N          31.8855   19.7038    2.7473 N.3   1780  UNL1780    -0.3437
   7118 H          31.4438   18.8320    2.4588 H     1780  UNL1780     0.1146
   7119 H          32.6111   19.4439    3.4139 H     1780  UNL1780     0.1146
   7120 H          32.3730   20.0572    1.9252 H     1780  UNL1780     0.1146
   7121 N          31.8855   19.7038    5.3881 N.3   1781  UNL1781    -0.3437
   7122 H          31.4438   18.8320    5.0996 H     1781  UNL1781     0.1146
   7123 H          32.6111   19.4439    6.0547 H     1781  UNL1781     0.1146
   7124 H          32.3730   20.0572    4.5660 H     1781  UNL1781     0.1146
   7125 N          31.8855   19.7038    8.0289 N.3   1782  UNL1782    -0.3437
   7126 H          31.4438   18.8320    7.7404 H     1782  UNL1782     0.1146
   7127 H          32.6111   19.4439    8.6955 H     1782  UNL1782     0.1146
   7128 H          32.3730   20.0572    7.2068 H     1782  UNL1782     0.1146
   7129 N          31.8855   19.4817   10.3364 N.3   1783  UNL1783    -0.3437
   7130 H          31.4438   19.7723   11.2075 H     1783  UNL1783     0.1146
   7131 H          32.6111   20.1713   10.1457 H     1783  UNL1783     0.1146
   7132 H          32.3730   18.6116   10.5453 H     1783  UNL1783     0.1146
   7133 N          32.0921   19.6971   12.9718 N.3   1784  UNL1784    -0.3437
   7134 H          31.4707   20.0200   13.7120 H     1784  UNL1784     0.1146
   7135 H          32.9983   19.5448   13.4124 H     1784  UNL1784     0.1146
   7136 H          31.7525   18.7751   12.7021 H     1784  UNL1784     0.1146
   7137 N          32.0921   19.6971   15.6126 N.3   1785  UNL1785    -0.3437
   7138 H          31.4707   20.0200   16.3528 H     1785  UNL1785     0.1146
   7139 H          32.9983   19.5448   16.0532 H     1785  UNL1785     0.1146
   7140 H          31.7525   18.7751   15.3430 H     1785  UNL1785     0.1146
   7141 N          31.8855   19.7038   18.5922 N.3   1786  UNL1786    -0.3437
   7142 H          31.4438   18.8320   18.3037 H     1786  UNL1786     0.1146
   7143 H          32.6111   19.4439   19.2588 H     1786  UNL1786     0.1146
   7144 H          32.3730   20.0572   17.7701 H     1786  UNL1786     0.1146
   7145 N          31.8855   19.7038   21.2331 N.3   1787  UNL1787    -0.3437
   7146 H          31.4438   18.8320   20.9446 H     1787  UNL1787     0.1146
   7147 H          32.6111   19.4439   21.8997 H     1787  UNL1787     0.1146
   7148 H          32.3730   20.0572   20.4110 H     1787  UNL1787     0.1146
   7149 N          31.8855   22.3015    0.4140 N.3   1788  UNL1788    -0.3437
   7150 H          31.4438   22.5921    1.2851 H     1788  UNL1788     0.1146
   7151 H          32.6111   22.9911    0.2233 H     1788  UNL1788     0.1146
   7152 H          32.3730   21.4314    0.6229 H     1788  UNL1788     0.1146
   7153 N          31.8855   22.3015    3.0548 N.3   1789  UNL1789    -0.3437
   7154 H          31.4438   22.5921    3.9259 H     1789  UNL1789     0.1146
   7155 H          32.6111   22.9911    2.8641 H     1789  UNL1789     0.1146
   7156 H          32.3730   21.4314    3.2637 H     1789  UNL1789     0.1146
   7157 N          31.8855   22.3015    5.6956 N.3   1790  UNL1790    -0.3437
   7158 H          31.4438   22.5921    6.5667 H     1790  UNL1790     0.1146
   7159 H          32.6111   22.9911    5.5049 H     1790  UNL1790     0.1146
   7160 H          32.3730   21.4314    5.9045 H     1790  UNL1790     0.1146
   7161 N          31.8855   22.3015   10.3364 N.3   1791  UNL1791    -0.3437
   7162 H          31.4438   22.5921   11.2075 H     1791  UNL1791     0.1146
   7163 H          32.6111   22.9911   10.1457 H     1791  UNL1791     0.1146
   7164 H          32.3730   21.4314   10.5453 H     1791  UNL1791     0.1146
   7165 N          31.8855   22.3015   12.9773 N.3   1792  UNL1792    -0.3437
   7166 H          31.4438   22.5921   13.8484 H     1792  UNL1792     0.1146
   7167 H          32.6111   22.9911   12.7866 H     1792  UNL1792     0.1146
   7168 H          32.3730   21.4314   13.1862 H     1792  UNL1792     0.1146
   7169 N          31.8855   22.3015   15.6181 N.3   1793  UNL1793    -0.3437
   7170 H          31.4438   22.5921   16.4892 H     1793  UNL1793     0.1146
   7171 H          32.6111   22.9911   15.4274 H     1793  UNL1793     0.1146
   7172 H          32.3730   21.4314   15.8270 H     1793  UNL1793     0.1146
   7173 N          31.8855   22.5236   18.5922 N.3   1794  UNL1794    -0.3437
   7174 H          31.4438   21.6518   18.3037 H     1794  UNL1794     0.1146
   7175 H          32.6111   22.2637   19.2588 H     1794  UNL1794     0.1146
   7176 H          32.3730   22.8770   17.7701 H     1794  UNL1794     0.1146
   7177 N          30.0921   22.5169   20.8943 N.3   1795  UNL1795    -0.3437
   7178 H          29.4707   22.8398   21.6345 H     1795  UNL1795     0.1146
   7179 H          30.9983   22.3646   21.3348 H     1795  UNL1795     0.1146
   7180 H          29.7525   21.5948   20.6246 H     1795  UNL1795     0.1146
   7181 N          31.8855   25.3434    0.1065 N.3   1796  UNL1796    -0.3437
   7182 H          31.4438   24.4716   -0.1820 H     1796  UNL1796     0.1146
   7183 H          32.6111   25.0835    0.7731 H     1796  UNL1796     0.1146
   7184 H          32.3730   25.6967   -0.7156 H     1796  UNL1796     0.1146
   7185 N          31.8855   25.3434    2.7473 N.3   1797  UNL1797    -0.3437
   7186 H          31.4438   24.4716    2.4588 H     1797  UNL1797     0.1146
   7187 H          32.6111   25.0835    3.4139 H     1797  UNL1797     0.1146
   7188 H          32.3730   25.6967    1.9252 H     1797  UNL1797     0.1146
   7189 N          32.2159   25.0108    5.0548 N.3   1798  UNL1798    -0.3437
   7190 H          32.2474   24.4830    5.9259 H     1798  UNL1798     0.1146
   7191 H          31.2291   25.1794    4.8641 H     1798  UNL1798     0.1146
   7192 H          32.6212   25.9221    5.2637 H     1798  UNL1798     0.1146
   7193 N          31.8855   25.1213    7.6956 N.3   1799  UNL1799    -0.3437
   7194 H          31.4438   25.4119    8.5667 H     1799  UNL1799     0.1146
   7195 H          32.6111   25.8109    7.5049 H     1799  UNL1799     0.1146
   7196 H          32.3730   24.2512    7.9045 H     1799  UNL1799     0.1146
   7197 N          32.1227   24.9301   10.3649 N.3   1800  UNL1800    -0.3437
   7198 H          31.1783   24.9321   10.7474 H     1800  UNL1800     0.1146
   7199 H          32.2624   25.8533    9.9566 H     1800  UNL1800     0.1146
   7200 H          32.7502   24.8797   11.1662 H     1800  UNL1800     0.1146
   7201 N          31.8491   25.0284   13.0571 N.3   1801  UNL1801    -0.3437
   7202 H          31.9768   24.6452   13.9926 H     1801  UNL1801     0.1146
   7203 H          31.7540   26.0359   13.1768 H     1801  UNL1801     0.1146
   7204 H          32.7337   24.8856   12.5718 H     1801  UNL1801     0.1146
   7205 N          31.8855   24.9872   15.9955 N.3   1802  UNL1802    -0.3437
   7206 H          31.4438   25.5111   15.2414 H     1802  UNL1802     0.1146
   7207 H          32.6111   24.4217   15.5572 H     1802  UNL1802     0.1146
   7208 H          32.3730   25.6752   16.5676 H     1802  UNL1802     0.1146
   7209 N          31.8855   25.3434   18.5922 N.3   1803  UNL1803    -0.3437
   7210 H          31.4438   24.4716   18.3037 H     1803  UNL1803     0.1146
   7211 H          32.6111   25.0835   19.2588 H     1803  UNL1803     0.1146
   7212 H          32.3730   25.6967   17.7701 H     1803  UNL1803     0.1146
   7213 N          31.8855   25.3434   21.2331 N.3   1804  UNL1804    -0.3437
   7214 H          31.4438   24.4716   20.9446 H     1804  UNL1804     0.1146
   7215 H          32.6111   25.0835   21.8997 H     1804  UNL1804     0.1146
   7216 H          32.3730   25.6967   20.4110 H     1804  UNL1804     0.1146
   7217 N          31.8855   27.9410    0.4140 N.3   1805  UNL1805    -0.3437
   7218 H          31.4438   28.2316    1.2851 H     1805  UNL1805     0.1146
   7219 H          32.6111   28.6306    0.2233 H     1805  UNL1805     0.1146
   7220 H          32.3730   27.0709    0.6229 H     1805  UNL1805     0.1146
   7221 N          31.8855   27.9410    3.0548 N.3   1806  UNL1806    -0.3437
   7222 H          31.4438   28.2316    3.9259 H     1806  UNL1806     0.1146
   7223 H          32.6111   28.6306    2.8641 H     1806  UNL1806     0.1146
   7224 H          32.3730   27.0709    3.2637 H     1806  UNL1806     0.1146
   7225 N          31.8301   28.1272    5.9417 N.3   1807  UNL1807    -0.3437
   7226 H          32.2462   27.9086    6.8458 H     1807  UNL1807     0.1146
   7227 H          32.5541   28.6059    5.4077 H     1807  UNL1807     0.1146
   7228 H          31.6832   27.2326    5.4765 H     1807  UNL1807     0.1146
   7229 N          32.3719   27.9410    8.5373 N.3   1808  UNL1808    -0.3437
   7230 H          31.9384   28.2316    7.6621 H     1808  UNL1808     0.1146
   7231 H          32.0905   28.6306    9.2328 H     1808  UNL1808     0.1146
   7232 H          31.9128   27.0709    8.8029 H     1808  UNL1808     0.1146
   7233 N          31.8301   28.1272   11.2234 N.3   1809  UNL1809    -0.3437
   7234 H          32.2462   27.9086   12.1275 H     1809  UNL1809     0.1146
   7235 H          32.5541   28.6059   10.6893 H     1809  UNL1809     0.1146
   7236 H          31.6832   27.2326   10.7581 H     1809  UNL1809     0.1146
   7237 N          31.8301   28.1272   13.8642 N.3   1810  UNL1810    -0.3437
   7238 H          32.2462   27.9086   14.7683 H     1810  UNL1810     0.1146
   7239 H          32.5541   28.6059   13.3302 H     1810  UNL1810     0.1146
   7240 H          31.6832   27.2326   13.3990 H     1810  UNL1810     0.1146
   7241 N          31.8855   27.9410   16.2589 N.3   1811  UNL1811    -0.3437
   7242 H          31.4438   28.2316   17.1300 H     1811  UNL1811     0.1146
   7243 H          32.6111   28.6306   16.0682 H     1811  UNL1811     0.1146
   7244 H          32.3730   27.0709   16.4678 H     1811  UNL1811     0.1146
   7245 N          31.8855   27.9410   18.8997 N.3   1812  UNL1812    -0.3437
   7246 H          31.4438   28.2316   19.7708 H     1812  UNL1812     0.1146
   7247 H          32.6111   28.6306   18.7090 H     1812  UNL1812     0.1146
   7248 H          32.3730   27.0709   19.1086 H     1812  UNL1812     0.1146
   7249 N          31.8855   27.9410   21.5406 N.3   1813  UNL1813    -0.3437
   7250 H          31.4438   28.2316   22.4117 H     1813  UNL1813     0.1146
   7251 H          32.6111   28.6306   21.3499 H     1813  UNL1813     0.1146
   7252 H          32.3730   27.0709   21.7495 H     1813  UNL1813     0.1146
   7253 N          31.8855   30.7608   -0.2269 N.3   1814  UNL1814    -0.3437
   7254 H          31.4438   31.0514    0.6442 H     1814  UNL1814     0.1146
   7255 H          32.6111   31.4504   -0.4176 H     1814  UNL1814     0.1146
   7256 H          32.3730   29.8907   -0.0180 H     1814  UNL1814     0.1146
   7257 N          31.8855   30.7608    2.4140 N.3   1815  UNL1815    -0.3437
   7258 H          31.4438   31.0514    3.2851 H     1815  UNL1815     0.1146
   7259 H          32.6111   31.4504    2.2233 H     1815  UNL1815     0.1146
   7260 H          32.3730   29.8907    2.6229 H     1815  UNL1815     0.1146
   7261 N          31.8855   30.7608    5.0548 N.3   1816  UNL1816    -0.3437
   7262 H          31.4438   31.0514    5.9259 H     1816  UNL1816     0.1146
   7263 H          32.6111   31.4504    4.8641 H     1816  UNL1816     0.1146
   7264 H          32.3730   29.8907    5.2637 H     1816  UNL1816     0.1146
   7265 N          31.8855   30.7608    7.6956 N.3   1817  UNL1817    -0.3437
   7266 H          31.4438   31.0514    8.5667 H     1817  UNL1817     0.1146
   7267 H          32.6111   31.4504    7.5049 H     1817  UNL1817     0.1146
   7268 H          32.3730   29.8907    7.9045 H     1817  UNL1817     0.1146
   7269 N          29.8855   30.7608   10.3364 N.3   1818  UNL1818    -0.3437
   7270 H          29.4438   31.0514   11.2075 H     1818  UNL1818     0.1146
   7271 H          30.6111   31.4504   10.1457 H     1818  UNL1818     0.1146
   7272 H          30.3730   29.8907   10.5453 H     1818  UNL1818     0.1146
   7273 N          31.8855   30.7608   12.9773 N.3   1819  UNL1819    -0.3437
   7274 H          31.4438   31.0514   13.8484 H     1819  UNL1819     0.1146
   7275 H          32.6111   31.4504   12.7866 H     1819  UNL1819     0.1146
   7276 H          32.3730   29.8907   13.1862 H     1819  UNL1819     0.1146
   7277 N          31.8855   30.7608   15.6181 N.3   1820  UNL1820    -0.3437
   7278 H          31.4438   31.0514   16.4892 H     1820  UNL1820     0.1146
   7279 H          32.6111   31.4504   15.4274 H     1820  UNL1820     0.1146
   7280 H          32.3730   29.8907   15.8270 H     1820  UNL1820     0.1146
   7281 N          31.8855   30.7608   18.2589 N.3   1821  UNL1821    -0.3437
   7282 H          31.4438   31.0514   19.1300 H     1821  UNL1821     0.1146
   7283 H          32.6111   31.4504   18.0682 H     1821  UNL1821     0.1146
   7284 H          32.3730   29.8907   18.4678 H     1821  UNL1821     0.1146
   7285 N          31.8855   30.7608   20.8997 N.3   1822  UNL1822    -0.3437
   7286 H          31.4438   31.0514   21.7708 H     1822  UNL1822     0.1146
   7287 H          32.6111   31.4504   20.7090 H     1822  UNL1822     0.1146
   7288 H          32.3730   29.8907   21.1086 H     1822  UNL1822     0.1146
   7289 N          31.8855   33.5806   -0.2269 N.3   1823  UNL1823    -0.3437
   7290 H          31.4438   33.8712    0.6442 H     1823  UNL1823     0.1146
   7291 H          32.6111   34.2702   -0.4176 H     1823  UNL1823     0.1146
   7292 H          32.3730   32.7105   -0.0180 H     1823  UNL1823     0.1146
   7293 N          31.8855   33.5806    2.4140 N.3   1824  UNL1824    -0.3437
   7294 H          31.4438   33.8712    3.2851 H     1824  UNL1824     0.1146
   7295 H          32.6111   34.2702    2.2233 H     1824  UNL1824     0.1146
   7296 H          32.3730   32.7105    2.6229 H     1824  UNL1824     0.1146
   7297 N          31.8855   33.5806    5.0548 N.3   1825  UNL1825    -0.3437
   7298 H          31.4438   33.8712    5.9259 H     1825  UNL1825     0.1146
   7299 H          32.6111   34.2702    4.8641 H     1825  UNL1825     0.1146
   7300 H          32.3730   32.7105    5.2637 H     1825  UNL1825     0.1146
   7301 N          31.8855   33.5806    7.6956 N.3   1826  UNL1826    -0.3437
   7302 H          31.4438   33.8712    8.5667 H     1826  UNL1826     0.1146
   7303 H          32.6111   34.2702    7.5049 H     1826  UNL1826     0.1146
   7304 H          32.3730   32.7105    7.9045 H     1826  UNL1826     0.1146
   7305 N          31.8855   33.5806   10.3364 N.3   1827  UNL1827    -0.3437
   7306 H          31.4438   33.8712   11.2075 H     1827  UNL1827     0.1146
   7307 H          32.6111   34.2702   10.1457 H     1827  UNL1827     0.1146
   7308 H          32.3730   32.7105   10.5453 H     1827  UNL1827     0.1146
   7309 N          31.8855   33.5806   12.9773 N.3   1828  UNL1828    -0.3437
   7310 H          31.4438   33.8712   13.8484 H     1828  UNL1828     0.1146
   7311 H          32.6111   34.2702   12.7866 H     1828  UNL1828     0.1146
   7312 H          32.3730   32.7105   13.1862 H     1828  UNL1828     0.1146
   7313 N          31.8855   33.5806   15.6181 N.3   1829  UNL1829    -0.3437
   7314 H          31.4438   33.8712   16.4892 H     1829  UNL1829     0.1146
   7315 H          32.6111   34.2702   15.4274 H     1829  UNL1829     0.1146
   7316 H          32.3730   32.7105   15.8270 H     1829  UNL1829     0.1146
   7317 N          31.8855   33.5806   18.2589 N.3   1830  UNL1830    -0.3437
   7318 H          31.4438   33.8712   19.1300 H     1830  UNL1830     0.1146
   7319 H          32.6111   34.2702   18.0682 H     1830  UNL1830     0.1146
   7320 H          32.3730   32.7105   18.4678 H     1830  UNL1830     0.1146
   7321 N          31.8855   33.5806   20.8997 N.3   1831  UNL1831    -0.3437
   7322 H          31.4438   33.8712   21.7708 H     1831  UNL1831     0.1146
   7323 H          32.6111   34.2702   20.7090 H     1831  UNL1831     0.1146
   7324 H          32.3730   32.7105   21.1086 H     1831  UNL1831     0.1146
   7325 N          31.8855   36.6225    0.1065 N.3   1832  UNL1832    -0.3437
   7326 H          31.4438   35.7507   -0.1820 H     1832  UNL1832     0.1146
   7327 H          32.6111   36.3626    0.7731 H     1832  UNL1832     0.1146
   7328 H          32.3730   36.9758   -0.7156 H     1832  UNL1832     0.1146
   7329 N          31.8855   36.6225    2.7473 N.3   1833  UNL1833    -0.3437
   7330 H          31.4438   35.7507    2.4588 H     1833  UNL1833     0.1146
   7331 H          32.6111   36.3626    3.4139 H     1833  UNL1833     0.1146
   7332 H          32.3730   36.9758    1.9252 H     1833  UNL1833     0.1146
   7333 N          31.8855   36.6225    5.3881 N.3   1834  UNL1834    -0.3437
   7334 H          31.4438   35.7507    5.0996 H     1834  UNL1834     0.1146
   7335 H          32.6111   36.3626    6.0547 H     1834  UNL1834     0.1146
   7336 H          32.3730   36.9758    4.5660 H     1834  UNL1834     0.1146
   7337 N          31.8855   36.4004    7.6956 N.3   1835  UNL1835    -0.3437
   7338 H          31.4438   36.6910    8.5667 H     1835  UNL1835     0.1146
   7339 H          32.6111   37.0900    7.5049 H     1835  UNL1835     0.1146
   7340 H          32.3730   35.5303    7.9045 H     1835  UNL1835     0.1146
   7341 N          31.8855   36.4004   10.3364 N.3   1836  UNL1836    -0.3437
   7342 H          31.4438   36.6910   11.2075 H     1836  UNL1836     0.1146
   7343 H          32.6111   37.0900   10.1457 H     1836  UNL1836     0.1146
   7344 H          32.3730   35.5303   10.5453 H     1836  UNL1836     0.1146
   7345 N          31.8855   36.4004   12.9773 N.3   1837  UNL1837    -0.3437
   7346 H          31.4438   36.6910   13.8484 H     1837  UNL1837     0.1146
   7347 H          32.6111   37.0900   12.7866 H     1837  UNL1837     0.1146
   7348 H          32.3730   35.5303   13.1862 H     1837  UNL1837     0.1146
   7349 N          31.8855   36.4004   15.6181 N.3   1838  UNL1838    -0.3437
   7350 H          31.4438   36.6910   16.4892 H     1838  UNL1838     0.1146
   7351 H          32.6111   37.0900   15.4274 H     1838  UNL1838     0.1146
   7352 H          32.3730   35.5303   15.8270 H     1838  UNL1838     0.1146
   7353 N          31.8855   36.4004   18.2589 N.3   1839  UNL1839    -0.3437
   7354 H          31.4438   36.6910   19.1300 H     1839  UNL1839     0.1146
   7355 H          32.6111   37.0900   18.0682 H     1839  UNL1839     0.1146
   7356 H          32.3730   35.5303   18.4678 H     1839  UNL1839     0.1146
   7357 N          31.8855   36.4004   20.8997 N.3   1840  UNL1840    -0.3437
   7358 H          31.4438   36.6910   21.7708 H     1840  UNL1840     0.1146
   7359 H          32.6111   37.0900   20.7090 H     1840  UNL1840     0.1146
   7360 H          32.3730   35.5303   21.1086 H     1840  UNL1840     0.1146
   7361 N          31.8855   39.2202   -0.2269 N.3   1841  UNL1841    -0.3437
   7362 H          31.4438   39.5108    0.6442 H     1841  UNL1841     0.1146
   7363 H          32.6111   39.9098   -0.4176 H     1841  UNL1841     0.1146
   7364 H          32.3730   38.3501   -0.0180 H     1841  UNL1841     0.1146
   7365 N          31.8855   39.2202    2.4140 N.3   1842  UNL1842    -0.3437
   7366 H          31.4438   39.5108    3.2851 H     1842  UNL1842     0.1146
   7367 H          32.6111   39.9098    2.2233 H     1842  UNL1842     0.1146
   7368 H          32.3730   38.3501    2.6229 H     1842  UNL1842     0.1146
   7369 N          31.8855   39.2202    5.0548 N.3   1843  UNL1843    -0.3437
   7370 H          31.4438   39.5108    5.9259 H     1843  UNL1843     0.1146
   7371 H          32.6111   39.9098    4.8641 H     1843  UNL1843     0.1146
   7372 H          32.3730   38.3501    5.2637 H     1843  UNL1843     0.1146
   7373 N          31.8855   39.2202    7.6956 N.3   1844  UNL1844    -0.3437
   7374 H          31.4438   39.5108    8.5667 H     1844  UNL1844     0.1146
   7375 H          32.6111   39.9098    7.5049 H     1844  UNL1844     0.1146
   7376 H          32.3730   38.3501    7.9045 H     1844  UNL1844     0.1146
   7377 N          31.8855   39.2202   10.3364 N.3   1845  UNL1845    -0.3437
   7378 H          31.4438   39.5108   11.2075 H     1845  UNL1845     0.1146
   7379 H          32.6111   39.9098   10.1457 H     1845  UNL1845     0.1146
   7380 H          32.3730   38.3501   10.5453 H     1845  UNL1845     0.1146
   7381 N          31.8855   39.2202   12.9773 N.3   1846  UNL1846    -0.3437
   7382 H          31.4438   39.5108   13.8484 H     1846  UNL1846     0.1146
   7383 H          32.6111   39.9098   12.7866 H     1846  UNL1846     0.1146
   7384 H          32.3730   38.3501   13.1862 H     1846  UNL1846     0.1146
   7385 N          31.8855   39.2202   15.6181 N.3   1847  UNL1847    -0.3437
   7386 H          31.4438   39.5108   16.4892 H     1847  UNL1847     0.1146
   7387 H          32.6111   39.9098   15.4274 H     1847  UNL1847     0.1146
   7388 H          32.3730   38.3501   15.8270 H     1847  UNL1847     0.1146
   7389 N          31.8855   39.2202   18.2589 N.3   1848  UNL1848    -0.3437
   7390 H          31.4438   39.5108   19.1300 H     1848  UNL1848     0.1146
   7391 H          32.6111   39.9098   18.0682 H     1848  UNL1848     0.1146
   7392 H          32.3730   38.3501   18.4678 H     1848  UNL1848     0.1146
   7393 N          31.8855   39.2202   20.8997 N.3   1849  UNL1849    -0.3437
   7394 H          31.4438   39.5108   21.7708 H     1849  UNL1849     0.1146
   7395 H          32.6111   39.9098   20.7090 H     1849  UNL1849     0.1146
   7396 H          32.3730   38.3501   21.1086 H     1849  UNL1849     0.1146
   7397 N          32.3618    8.3888   10.5826 N.3   1850  UNL1850    -0.3437
   7398 H          32.7779    8.1702   11.4867 H     1850  UNL1850     0.1146
   7399 H          33.0858    8.8674   10.0485 H     1850  UNL1850     0.1146
   7400 H          32.2149    7.4942   10.1173 H     1850  UNL1850     0.1146
   7401 N          32.4172   13.8422   12.9773 N.3   1851  UNL1851    -0.3437
   7402 H          31.9755   14.1328   13.8484 H     1851  UNL1851     0.1146
   7403 H          33.1428   14.5318   12.7866 H     1851  UNL1851     0.1146
   7404 H          32.9047   12.9721   13.1862 H     1851  UNL1851     0.1146
   7405 N          32.4172   13.8422   15.6181 N.3   1852  UNL1852    -0.3437
   7406 H          31.9755   14.1328   16.4892 H     1852  UNL1852     0.1146
   7407 H          33.1428   14.5318   15.4274 H     1852  UNL1852     0.1146
   7408 H          32.9047   12.9721   15.8270 H     1852  UNL1852     0.1146
   7409 N          32.5474   22.3015   21.4096 N.3   1853  UNL1853    -0.3437
   7410 H          33.5096   22.5921   21.2422 H     1853  UNL1853     0.1146
   7411 H          31.9604   22.9911   20.9424 H     1853  UNL1853     0.1146
   7412 H          32.4230   21.4314   20.8940 H     1853  UNL1853     0.1146
   7413 N          32.4172   30.7608   10.3364 N.3   1854  UNL1854    -0.3437
   7414 H          31.9755   31.0514   11.2075 H     1854  UNL1854     0.1146
   7415 H          33.1428   31.4504   10.1457 H     1854  UNL1854     0.1146
   7416 H          32.9047   29.8907   10.5453 H     1854  UNL1854     0.1146
   7417 N          34.3335   36.4174    7.8143 N.3   1855  UNL1855    -0.3437
   7418 H          34.4712   35.8238    8.6311 H     1855  UNL1855     0.1146
   7419 H          34.6126   37.3553    8.0985 H     1855  UNL1855     0.1146
   7420 H          35.0232   36.1150    7.1279 H     1855  UNL1855     0.1146
@<TRIPOS>BOND
     1     1     2    1
     2     1     3    1
     3     1     4    1
     4     5     6    1
     5     5     7    1
     6     5     8    1
     7     9    10    1
     8     9    11    1
     9     9    12    1
    10    13    14    1
    11    13    15    1
    12    13    16    1
    13    17    18    1
    14    17    19    1
    15    17    20    1
    16    21    22    1
    17    21    23    1
    18    21    24    1
    19    25    26    1
    20    25    27    1
    21    25    28    1
    22    29    30    1
    23    29    31    1
    24    29    32    1
    25    33    34    1
    26    33    35    1
    27    33    36    1
    28    37    38    1
    29    37    39    1
    30    37    40    1
    31    41    42    1
    32    41    43    1
    33    41    44    1
    34    45    46    1
    35    45    47    1
    36    45    48    1
    37    49    50    1
    38    49    51    1
    39    49    52    1
    40    53    54    1
    41    53    55    1
    42    53    56    1
    43    57    58    1
    44    57    59    1
    45    57    60    1
    46    61    62    1
    47    61    63    1
    48    61    64    1
    49    65    66    1
    50    65    67    1
    51    65    68    1
    52    69    70    1
    53    69    71    1
    54    69    72    1
    55    73    74    1
    56    73    75    1
    57    73    76    1
    58    77    78    1
    59    77    79    1
    60    77    80    1
    61    81    82    1
    62    81    83    1
    63    81    84    1
    64    85    86    1
    65    85    87    1
    66    85    88    1
    67    89    90    1
    68    89    91    1
    69    89    92    1
    70    93    94    1
    71    93    95    1
    72    93    96    1
    73    97    98    1
    74    97    99    1
    75    97   100    1
    76   101   102    1
    77   101   103    1
    78   101   104    1
    79   105   106    1
    80   105   107    1
    81   105   108    1
    82   109   110    1
    83   109   111    1
    84   109   112    1
    85   113   114    1
    86   113   115    1
    87   113   116    1
    88   117   118    1
    89   117   119    1
    90   117   120    1
    91   121   122    1
    92   121   123    1
    93   121   124    1
    94   125   126    1
    95   125   127    1
    96   125   128    1
    97   129   130    1
    98   129   131    1
    99   129   132    1
   100   133   134    1
   101   133   135    1
   102   133   136    1
   103   137   138    1
   104   137   139    1
   105   137   140    1
   106   141   142    1
   107   141   143    1
   108   141   144    1
   109   145   146    1
   110   145   147    1
   111   145   148    1
   112   149   150    1
   113   149   151    1
   114   149   152    1
   115   153   154    1
   116   153   155    1
   117   153   156    1
   118   157   158    1
   119   157   159    1
   120   157   160    1
   121   161   162    1
   122   161   163    1
   123   161   164    1
   124   165   166    1
   125   165   167    1
   126   165   168    1
   127   169   170    1
   128   169   171    1
   129   169   172    1
   130   173   174    1
   131   173   175    1
   132   173   176    1
   133   177   178    1
   134   177   179    1
   135   177   180    1
   136   181   182    1
   137   181   183    1
   138   181   184    1
   139   185   186    1
   140   185   187    1
   141   185   188    1
   142   189   190    1
   143   189   191    1
   144   189   192    1
   145   193   194    1
   146   193   195    1
   147   193   196    1
   148   197   198    1
   149   197   199    1
   150   197   200    1
   151   201   202    1
   152   201   203    1
   153   201   204    1
   154   205   206    1
   155   205   207    1
   156   205   208    1
   157   209   210    1
   158   209   211    1
   159   209   212    1
   160   213   214    1
   161   213   215    1
   162   213   216    1
   163   217   218    1
   164   217   219    1
   165   217   220    1
   166   221   222    1
   167   221   223    1
   168   221   224    1
   169   225   226    1
   170   225   227    1
   171   225   228    1
   172   229   230    1
   173   229   231    1
   174   229   232    1
   175   233   234    1
   176   233   235    1
   177   233   236    1
   178   237   238    1
   179   237   239    1
   180   237   240    1
   181   241   242    1
   182   241   243    1
   183   241   244    1
   184   245   246    1
   185   245   247    1
   186   245   248    1
   187   249   250    1
   188   249   251    1
   189   249   252    1
   190   253   254    1
   191   253   255    1
   192   253   256    1
   193   257   258    1
   194   257   259    1
   195   257   260    1
   196   261   262    1
   197   261   263    1
   198   261   264    1
   199   265   266    1
   200   265   267    1
   201   265   268    1
   202   269   270    1
   203   269   271    1
   204   269   272    1
   205   273   274    1
   206   273   275    1
   207   273   276    1
   208   277   278    1
   209   277   279    1
   210   277   280    1
   211   281   282    1
   212   281   283    1
   213   281   284    1
   214   285   286    1
   215   285   287    1
   216   285   288    1
   217   289   290    1
   218   289   291    1
   219   289   292    1
   220   293   294    1
   221   293   295    1
   222   293   296    1
   223   297   298    1
   224   297   299    1
   225   297   300    1
   226   301   302    1
   227   301   303    1
   228   301   304    1
   229   305   306    1
   230   305   307    1
   231   305   308    1
   232   309   310    1
   233   309   311    1
   234   309   312    1
   235   313   314    1
   236   313   315    1
   237   313   316    1
   238   317   318    1
   239   317   319    1
   240   317   320    1
   241   321   322    1
   242   321   323    1
   243   321   324    1
   244   325   326    1
   245   325   327    1
   246   325   328    1
   247   329   330    1
   248   329   331    1
   249   329   332    1
   250   333   334    1
   251   333   335    1
   252   333   336    1
   253   337   338    1
   254   337   339    1
   255   337   340    1
   256   341   342    1
   257   341   343    1
   258   341   344    1
   259   345   346    1
   260   345   347    1
   261   345   348    1
   262   349   350    1
   263   349   351    1
   264   349   352    1
   265   353   354    1
   266   353   355    1
   267   353   356    1
   268   357   358    1
   269   357   359    1
   270   357   360    1
   271   361   362    1
   272   361   363    1
   273   361   364    1
   274   365   366    1
   275   365   367    1
   276   365   368    1
   277   369   370    1
   278   369   371    1
   279   369   372    1
   280   373   374    1
   281   373   375    1
   282   373   376    1
   283   377   378    1
   284   377   379    1
   285   377   380    1
   286   381   382    1
   287   381   383    1
   288   381   384    1
   289   385   386    1
   290   385   387    1
   291   385   388    1
   292   389   390    1
   293   389   391    1
   294   389   392    1
   295   393   394    1
   296   393   395    1
   297   393   396    1
   298   397   398    1
   299   397   399    1
   300   397   400    1
   301   401   402    1
   302   401   403    1
   303   401   404    1
   304   405   406    1
   305   405   407    1
   306   405   408    1
   307   409   410    1
   308   409   411    1
   309   409   412    1
   310   413   414    1
   311   413   415    1
   312   413   416    1
   313   417   418    1
   314   417   419    1
   315   417   420    1
   316   421   422    1
   317   421   423    1
   318   421   424    1
   319   425   426    1
   320   425   427    1
   321   425   428    1
   322   429   430    1
   323   429   431    1
   324   429   432    1
   325   433   434    1
   326   433   435    1
   327   433   436    1
   328   437   438    1
   329   437   439    1
   330   437   440    1
   331   441   442    1
   332   441   443    1
   333   441   444    1
   334   445   446    1
   335   445   447    1
   336   445   448    1
   337   449   450    1
   338   449   451    1
   339   449   452    1
   340   453   454    1
   341   453   455    1
   342   453   456    1
   343   457   458    1
   344   457   459    1
   345   457   460    1
   346   461   462    1
   347   461   463    1
   348   461   464    1
   349   465   466    1
   350   465   467    1
   351   465   468    1
   352   469   470    1
   353   469   471    1
   354   469   472    1
   355   473   474    1
   356   473   475    1
   357   473   476    1
   358   477   478    1
   359   477   479    1
   360   477   480    1
   361   481   482    1
   362   481   483    1
   363   481   484    1
   364   485   486    1
   365   485   487    1
   366   485   488    1
   367   489   490    1
   368   489   491    1
   369   489   492    1
   370   493   494    1
   371   493   495    1
   372   493   496    1
   373   497   498    1
   374   497   499    1
   375   497   500    1
   376   501   502    1
   377   501   503    1
   378   501   504    1
   379   505   506    1
   380   505   507    1
   381   505   508    1
   382   509   510    1
   383   509   511    1
   384   509   512    1
   385   513   514    1
   386   513   515    1
   387   513   516    1
   388   517   518    1
   389   517   519    1
   390   517   520    1
   391   521   522    1
   392   521   523    1
   393   521   524    1
   394   525   526    1
   395   525   527    1
   396   525   528    1
   397   529   530    1
   398   529   531    1
   399   529   532    1
   400   533   534    1
   401   533   535    1
   402   533   536    1
   403   537   538    1
   404   537   539    1
   405   537   540    1
   406   541   542    1
   407   541   543    1
   408   541   544    1
   409   545   546    1
   410   545   547    1
   411   545   548    1
   412   549   550    1
   413   549   551    1
   414   549   552    1
   415   553   554    1
   416   553   555    1
   417   553   556    1
   418   557   558    1
   419   557   559    1
   420   557   560    1
   421   561   562    1
   422   561   563    1
   423   561   564    1
   424   565   566    1
   425   565   567    1
   426   565   568    1
   427   569   570    1
   428   569   571    1
   429   569   572    1
   430   573   574    1
   431   573   575    1
   432   573   576    1
   433   577   578    1
   434   577   579    1
   435   577   580    1
   436   581   582    1
   437   581   583    1
   438   581   584    1
   439   585   586    1
   440   585   587    1
   441   585   588    1
   442   589   590    1
   443   589   591    1
   444   589   592    1
   445   593   594    1
   446   593   595    1
   447   593   596    1
   448   597   598    1
   449   597   599    1
   450   597   600    1
   451   601   602    1
   452   601   603    1
   453   601   604    1
   454   605   606    1
   455   605   607    1
   456   605   608    1
   457   609   610    1
   458   609   611    1
   459   609   612    1
   460   613   614    1
   461   613   615    1
   462   613   616    1
   463   617   618    1
   464   617   619    1
   465   617   620    1
   466   621   622    1
   467   621   623    1
   468   621   624    1
   469   625   626    1
   470   625   627    1
   471   625   628    1
   472   629   630    1
   473   629   631    1
   474   629   632    1
   475   633   634    1
   476   633   635    1
   477   633   636    1
   478   637   638    1
   479   637   639    1
   480   637   640    1
   481   641   642    1
   482   641   643    1
   483   641   644    1
   484   645   646    1
   485   645   647    1
   486   645   648    1
   487   649   650    1
   488   649   651    1
   489   649   652    1
   490   653   654    1
   491   653   655    1
   492   653   656    1
   493   657   658    1
   494   657   659    1
   495   657   660    1
   496   661   662    1
   497   661   663    1
   498   661   664    1
   499   665   666    1
   500   665   667    1
   501   665   668    1
   502   669   670    1
   503   669   671    1
   504   669   672    1
   505   673   674    1
   506   673   675    1
   507   673   676    1
   508   677   678    1
   509   677   679    1
   510   677   680    1
   511   681   682    1
   512   681   683    1
   513   681   684    1
   514   685   686    1
   515   685   687    1
   516   685   688    1
   517   689   690    1
   518   689   691    1
   519   689   692    1
   520   693   694    1
   521   693   695    1
   522   693   696    1
   523   697   698    1
   524   697   699    1
   525   697   700    1
   526   701   702    1
   527   701   703    1
   528   701   704    1
   529   705   706    1
   530   705   707    1
   531   705   708    1
   532   709   710    1
   533   709   711    1
   534   709   712    1
   535   713   714    1
   536   713   715    1
   537   713   716    1
   538   717   718    1
   539   717   719    1
   540   717   720    1
   541   721   722    1
   542   721   723    1
   543   721   724    1
   544   725   726    1
   545   725   727    1
   546   725   728    1
   547   729   730    1
   548   729   731    1
   549   729   732    1
   550   733   734    1
   551   733   735    1
   552   733   736    1
   553   737   738    1
   554   737   739    1
   555   737   740    1
   556   741   742    1
   557   741   743    1
   558   741   744    1
   559   745   746    1
   560   745   747    1
   561   745   748    1
   562   749   750    1
   563   749   751    1
   564   749   752    1
   565   753   754    1
   566   753   755    1
   567   753   756    1
   568   757   758    1
   569   757   759    1
   570   757   760    1
   571   761   762    1
   572   761   763    1
   573   761   764    1
   574   765   766    1
   575   765   767    1
   576   765   768    1
   577   769   770    1
   578   769   771    1
   579   769   772    1
   580   773   774    1
   581   773   775    1
   582   773   776    1
   583   777   778    1
   584   777   779    1
   585   777   780    1
   586   781   782    1
   587   781   783    1
   588   781   784    1
   589   785   786    1
   590   785   787    1
   591   785   788    1
   592   789   790    1
   593   789   791    1
   594   789   792    1
   595   793   794    1
   596   793   795    1
   597   793   796    1
   598   797   798    1
   599   797   799    1
   600   797   800    1
   601   801   802    1
   602   801   803    1
   603   801   804    1
   604   805   806    1
   605   805   807    1
   606   805   808    1
   607   809   810    1
   608   809   811    1
   609   809   812    1
   610   813   814    1
   611   813   815    1
   612   813   816    1
   613   817   818    1
   614   817   819    1
   615   817   820    1
   616   821   822    1
   617   821   823    1
   618   821   824    1
   619   825   826    1
   620   825   827    1
   621   825   828    1
   622   829   830    1
   623   829   831    1
   624   829   832    1
   625   833   834    1
   626   833   835    1
   627   833   836    1
   628   837   838    1
   629   837   839    1
   630   837   840    1
   631   841   842    1
   632   841   843    1
   633   841   844    1
   634   845   846    1
   635   845   847    1
   636   845   848    1
   637   849   850    1
   638   849   851    1
   639   849   852    1
   640   853   854    1
   641   853   855    1
   642   853   856    1
   643   857   858    1
   644   857   859    1
   645   857   860    1
   646   861   862    1
   647   861   863    1
   648   861   864    1
   649   865   866    1
   650   865   867    1
   651   865   868    1
   652   869   870    1
   653   869   871    1
   654   869   872    1
   655   873   874    1
   656   873   875    1
   657   873   876    1
   658   877   878    1
   659   877   879    1
   660   877   880    1
   661   881   882    1
   662   881   883    1
   663   881   884    1
   664   885   886    1
   665   885   887    1
   666   885   888    1
   667   889   890    1
   668   889   891    1
   669   889   892    1
   670   893   894    1
   671   893   895    1
   672   893   896    1
   673   897   898    1
   674   897   899    1
   675   897   900    1
   676   901   902    1
   677   901   903    1
   678   901   904    1
   679   905   906    1
   680   905   907    1
   681   905   908    1
   682   909   910    1
   683   909   911    1
   684   909   912    1
   685   913   914    1
   686   913   915    1
   687   913   916    1
   688   917   918    1
   689   917   919    1
   690   917   920    1
   691   921   922    1
   692   921   923    1
   693   921   924    1
   694   925   926    1
   695   925   927    1
   696   925   928    1
   697   929   930    1
   698   929   931    1
   699   929   932    1
   700   933   934    1
   701   933   935    1
   702   933   936    1
   703   937   938    1
   704   937   939    1
   705   937   940    1
   706   941   942    1
   707   941   943    1
   708   941   944    1
   709   945   946    1
   710   945   947    1
   711   945   948    1
   712   949   950    1
   713   949   951    1
   714   949   952    1
   715   953   954    1
   716   953   955    1
   717   953   956    1
   718   957   958    1
   719   957   959    1
   720   957   960    1
   721   961   962    1
   722   961   963    1
   723   961   964    1
   724   965   966    1
   725   965   967    1
   726   965   968    1
   727   969   970    1
   728   969   971    1
   729   969   972    1
   730   973   974    1
   731   973   975    1
   732   973   976    1
   733   977   978    1
   734   977   979    1
   735   977   980    1
   736   981   982    1
   737   981   983    1
   738   981   984    1
   739   985   986    1
   740   985   987    1
   741   985   988    1
   742   989   990    1
   743   989   991    1
   744   989   992    1
   745   993   994    1
   746   993   995    1
   747   993   996    1
   748   997   998    1
   749   997   999    1
   750   997  1000    1
   751  1001  1002    1
   752  1001  1003    1
   753  1001  1004    1
   754  1005  1006    1
   755  1005  1007    1
   756  1005  1008    1
   757  1009  1010    1
   758  1009  1011    1
   759  1009  1012    1
   760  1013  1014    1
   761  1013  1015    1
   762  1013  1016    1
   763  1017  1018    1
   764  1017  1019    1
   765  1017  1020    1
   766  1021  1022    1
   767  1021  1023    1
   768  1021  1024    1
   769  1025  1026    1
   770  1025  1027    1
   771  1025  1028    1
   772  1029  1030    1
   773  1029  1031    1
   774  1029  1032    1
   775  1033  1034    1
   776  1033  1035    1
   777  1033  1036    1
   778  1037  1038    1
   779  1037  1039    1
   780  1037  1040    1
   781  1041  1042    1
   782  1041  1043    1
   783  1041  1044    1
   784  1045  1046    1
   785  1045  1047    1
   786  1045  1048    1
   787  1049  1050    1
   788  1049  1051    1
   789  1049  1052    1
   790  1053  1054    1
   791  1053  1055    1
   792  1053  1056    1
   793  1057  1058    1
   794  1057  1059    1
   795  1057  1060    1
   796  1061  1062    1
   797  1061  1063    1
   798  1061  1064    1
   799  1065  1066    1
   800  1065  1067    1
   801  1065  1068    1
   802  1069  1070    1
   803  1069  1071    1
   804  1069  1072    1
   805  1073  1074    1
   806  1073  1075    1
   807  1073  1076    1
   808  1077  1078    1
   809  1077  1079    1
   810  1077  1080    1
   811  1081  1082    1
   812  1081  1083    1
   813  1081  1084    1
   814  1085  1086    1
   815  1085  1087    1
   816  1085  1088    1
   817  1089  1090    1
   818  1089  1091    1
   819  1089  1092    1
   820  1093  1094    1
   821  1093  1095    1
   822  1093  1096    1
   823  1097  1098    1
   824  1097  1099    1
   825  1097  1100    1
   826  1101  1102    1
   827  1101  1103    1
   828  1101  1104    1
   829  1105  1106    1
   830  1105  1107    1
   831  1105  1108    1
   832  1109  1110    1
   833  1109  1111    1
   834  1109  1112    1
   835  1113  1114    1
   836  1113  1115    1
   837  1113  1116    1
   838  1117  1118    1
   839  1117  1119    1
   840  1117  1120    1
   841  1121  1122    1
   842  1121  1123    1
   843  1121  1124    1
   844  1125  1126    1
   845  1125  1127    1
   846  1125  1128    1
   847  1129  1130    1
   848  1129  1131    1
   849  1129  1132    1
   850  1133  1134    1
   851  1133  1135    1
   852  1133  1136    1
   853  1137  1138    1
   854  1137  1139    1
   855  1137  1140    1
   856  1141  1142    1
   857  1141  1143    1
   858  1141  1144    1
   859  1145  1146    1
   860  1145  1147    1
   861  1145  1148    1
   862  1149  1150    1
   863  1149  1151    1
   864  1149  1152    1
   865  1153  1154    1
   866  1153  1155    1
   867  1153  1156    1
   868  1157  1158    1
   869  1157  1159    1
   870  1157  1160    1
   871  1161  1162    1
   872  1161  1163    1
   873  1161  1164    1
   874  1165  1166    1
   875  1165  1167    1
   876  1165  1168    1
   877  1169  1170    1
   878  1169  1171    1
   879  1169  1172    1
   880  1173  1174    1
   881  1173  1175    1
   882  1173  1176    1
   883  1177  1178    1
   884  1177  1179    1
   885  1177  1180    1
   886  1181  1182    1
   887  1181  1183    1
   888  1181  1184    1
   889  1185  1186    1
   890  1185  1187    1
   891  1185  1188    1
   892  1189  1190    1
   893  1189  1191    1
   894  1189  1192    1
   895  1193  1194    1
   896  1193  1195    1
   897  1193  1196    1
   898  1197  1198    1
   899  1197  1199    1
   900  1197  1200    1
   901  1201  1202    1
   902  1201  1203    1
   903  1201  1204    1
   904  1205  1206    1
   905  1205  1207    1
   906  1205  1208    1
   907  1209  1210    1
   908  1209  1211    1
   909  1209  1212    1
   910  1213  1214    1
   911  1213  1215    1
   912  1213  1216    1
   913  1217  1218    1
   914  1217  1219    1
   915  1217  1220    1
   916  1221  1222    1
   917  1221  1223    1
   918  1221  1224    1
   919  1225  1226    1
   920  1225  1227    1
   921  1225  1228    1
   922  1229  1230    1
   923  1229  1231    1
   924  1229  1232    1
   925  1233  1234    1
   926  1233  1235    1
   927  1233  1236    1
   928  1237  1238    1
   929  1237  1239    1
   930  1237  1240    1
   931  1241  1242    1
   932  1241  1243    1
   933  1241  1244    1
   934  1245  1246    1
   935  1245  1247    1
   936  1245  1248    1
   937  1249  1250    1
   938  1249  1251    1
   939  1249  1252    1
   940  1253  1254    1
   941  1253  1255    1
   942  1253  1256    1
   943  1257  1258    1
   944  1257  1259    1
   945  1257  1260    1
   946  1261  1262    1
   947  1261  1263    1
   948  1261  1264    1
   949  1265  1266    1
   950  1265  1267    1
   951  1265  1268    1
   952  1269  1270    1
   953  1269  1271    1
   954  1269  1272    1
   955  1273  1274    1
   956  1273  1275    1
   957  1273  1276    1
   958  1277  1278    1
   959  1277  1279    1
   960  1277  1280    1
   961  1281  1282    1
   962  1281  1283    1
   963  1281  1284    1
   964  1285  1286    1
   965  1285  1287    1
   966  1285  1288    1
   967  1289  1290    1
   968  1289  1291    1
   969  1289  1292    1
   970  1293  1294    1
   971  1293  1295    1
   972  1293  1296    1
   973  1297  1298    1
   974  1297  1299    1
   975  1297  1300    1
   976  1301  1302    1
   977  1301  1303    1
   978  1301  1304    1
   979  1305  1306    1
   980  1305  1307    1
   981  1305  1308    1
   982  1309  1310    1
   983  1309  1311    1
   984  1309  1312    1
   985  1313  1314    1
   986  1313  1315    1
   987  1313  1316    1
   988  1317  1318    1
   989  1317  1319    1
   990  1317  1320    1
   991  1321  1322    1
   992  1321  1323    1
   993  1321  1324    1
   994  1325  1326    1
   995  1325  1327    1
   996  1325  1328    1
   997  1329  1330    1
   998  1329  1331    1
   999  1329  1332    1
  1000  1333  1334    1
  1001  1333  1335    1
  1002  1333  1336    1
  1003  1337  1338    1
  1004  1337  1339    1
  1005  1337  1340    1
  1006  1341  1342    1
  1007  1341  1343    1
  1008  1341  1344    1
  1009  1345  1346    1
  1010  1345  1347    1
  1011  1345  1348    1
  1012  1349  1350    1
  1013  1349  1351    1
  1014  1349  1352    1
  1015  1353  1354    1
  1016  1353  1355    1
  1017  1353  1356    1
  1018  1357  1358    1
  1019  1357  1359    1
  1020  1357  1360    1
  1021  1361  1362    1
  1022  1361  1363    1
  1023  1361  1364    1
  1024  1365  1366    1
  1025  1365  1367    1
  1026  1365  1368    1
  1027  1369  1370    1
  1028  1369  1371    1
  1029  1369  1372    1
  1030  1373  1374    1
  1031  1373  1375    1
  1032  1373  1376    1
  1033  1377  1378    1
  1034  1377  1379    1
  1035  1377  1380    1
  1036  1381  1382    1
  1037  1381  1383    1
  1038  1381  1384    1
  1039  1385  1386    1
  1040  1385  1387    1
  1041  1385  1388    1
  1042  1389  1390    1
  1043  1389  1391    1
  1044  1389  1392    1
  1045  1393  1394    1
  1046  1393  1395    1
  1047  1393  1396    1
  1048  1397  1398    1
  1049  1397  1399    1
  1050  1397  1400    1
  1051  1401  1402    1
  1052  1401  1403    1
  1053  1401  1404    1
  1054  1405  1406    1
  1055  1405  1407    1
  1056  1405  1408    1
  1057  1409  1410    1
  1058  1409  1411    1
  1059  1409  1412    1
  1060  1413  1414    1
  1061  1413  1415    1
  1062  1413  1416    1
  1063  1417  1418    1
  1064  1417  1419    1
  1065  1417  1420    1
  1066  1421  1422    1
  1067  1421  1423    1
  1068  1421  1424    1
  1069  1425  1426    1
  1070  1425  1427    1
  1071  1425  1428    1
  1072  1429  1430    1
  1073  1429  1431    1
  1074  1429  1432    1
  1075  1433  1434    1
  1076  1433  1435    1
  1077  1433  1436    1
  1078  1437  1438    1
  1079  1437  1439    1
  1080  1437  1440    1
  1081  1441  1442    1
  1082  1441  1443    1
  1083  1441  1444    1
  1084  1445  1446    1
  1085  1445  1447    1
  1086  1445  1448    1
  1087  1449  1450    1
  1088  1449  1451    1
  1089  1449  1452    1
  1090  1453  1454    1
  1091  1453  1455    1
  1092  1453  1456    1
  1093  1457  1458    1
  1094  1457  1459    1
  1095  1457  1460    1
  1096  1461  1462    1
  1097  1461  1463    1
  1098  1461  1464    1
  1099  1465  1466    1
  1100  1465  1467    1
  1101  1465  1468    1
  1102  1469  1470    1
  1103  1469  1471    1
  1104  1469  1472    1
  1105  1473  1474    1
  1106  1473  1475    1
  1107  1473  1476    1
  1108  1477  1478    1
  1109  1477  1479    1
  1110  1477  1480    1
  1111  1481  1482    1
  1112  1481  1483    1
  1113  1481  1484    1
  1114  1485  1486    1
  1115  1485  1487    1
  1116  1485  1488    1
  1117  1489  1490    1
  1118  1489  1491    1
  1119  1489  1492    1
  1120  1493  1494    1
  1121  1493  1495    1
  1122  1493  1496    1
  1123  1497  1498    1
  1124  1497  1499    1
  1125  1497  1500    1
  1126  1501  1502    1
  1127  1501  1503    1
  1128  1501  1504    1
  1129  1505  1506    1
  1130  1505  1507    1
  1131  1505  1508    1
  1132  1509  1510    1
  1133  1509  1511    1
  1134  1509  1512    1
  1135  1513  1514    1
  1136  1513  1515    1
  1137  1513  1516    1
  1138  1517  1518    1
  1139  1517  1519    1
  1140  1517  1520    1
  1141  1521  1522    1
  1142  1521  1523    1
  1143  1521  1524    1
  1144  1525  1526    1
  1145  1525  1527    1
  1146  1525  1528    1
  1147  1529  1530    1
  1148  1529  1531    1
  1149  1529  1532    1
  1150  1533  1534    1
  1151  1533  1535    1
  1152  1533  1536    1
  1153  1537  1538    1
  1154  1537  1539    1
  1155  1537  1540    1
  1156  1541  1542    1
  1157  1541  1543    1
  1158  1541  1544    1
  1159  1545  1546    1
  1160  1545  1547    1
  1161  1545  1548    1
  1162  1549  1550    1
  1163  1549  1551    1
  1164  1549  1552    1
  1165  1553  1554    1
  1166  1553  1555    1
  1167  1553  1556    1
  1168  1557  1558    1
  1169  1557  1559    1
  1170  1557  1560    1
  1171  1561  1562    1
  1172  1561  1563    1
  1173  1561  1564    1
  1174  1565  1566    1
  1175  1565  1567    1
  1176  1565  1568    1
  1177  1569  1570    1
  1178  1569  1571    1
  1179  1569  1572    1
  1180  1573  1574    1
  1181  1573  1575    1
  1182  1573  1576    1
  1183  1577  1578    1
  1184  1577  1579    1
  1185  1577  1580    1
  1186  1581  1582    1
  1187  1581  1583    1
  1188  1581  1584    1
  1189  1585  1586    1
  1190  1585  1587    1
  1191  1585  1588    1
  1192  1589  1590    1
  1193  1589  1591    1
  1194  1589  1592    1
  1195  1593  1594    1
  1196  1593  1595    1
  1197  1593  1596    1
  1198  1597  1598    1
  1199  1597  1599    1
  1200  1597  1600    1
  1201  1601  1602    1
  1202  1601  1603    1
  1203  1601  1604    1
  1204  1605  1606    1
  1205  1605  1607    1
  1206  1605  1608    1
  1207  1609  1610    1
  1208  1609  1611    1
  1209  1609  1612    1
  1210  1613  1614    1
  1211  1613  1615    1
  1212  1613  1616    1
  1213  1617  1618    1
  1214  1617  1619    1
  1215  1617  1620    1
  1216  1621  1622    1
  1217  1621  1623    1
  1218  1621  1624    1
  1219  1625  1626    1
  1220  1625  1627    1
  1221  1625  1628    1
  1222  1629  1630    1
  1223  1629  1631    1
  1224  1629  1632    1
  1225  1633  1634    1
  1226  1633  1635    1
  1227  1633  1636    1
  1228  1637  1638    1
  1229  1637  1639    1
  1230  1637  1640    1
  1231  1641  1642    1
  1232  1641  1643    1
  1233  1641  1644    1
  1234  1645  1646    1
  1235  1645  1647    1
  1236  1645  1648    1
  1237  1649  1650    1
  1238  1649  1651    1
  1239  1649  1652    1
  1240  1653  1654    1
  1241  1653  1655    1
  1242  1653  1656    1
  1243  1657  1658    1
  1244  1657  1659    1
  1245  1657  1660    1
  1246  1661  1662    1
  1247  1661  1663    1
  1248  1661  1664    1
  1249  1665  1666    1
  1250  1665  1667    1
  1251  1665  1668    1
  1252  1669  1670    1
  1253  1669  1671    1
  1254  1669  1672    1
  1255  1673  1674    1
  1256  1673  1675    1
  1257  1673  1676    1
  1258  1677  1678    1
  1259  1677  1679    1
  1260  1677  1680    1
  1261  1681  1682    1
  1262  1681  1683    1
  1263  1681  1684    1
  1264  1685  1686    1
  1265  1685  1687    1
  1266  1685  1688    1
  1267  1689  1690    1
  1268  1689  1691    1
  1269  1689  1692    1
  1270  1693  1694    1
  1271  1693  1695    1
  1272  1693  1696    1
  1273  1697  1698    1
  1274  1697  1699    1
  1275  1697  1700    1
  1276  1701  1702    1
  1277  1701  1703    1
  1278  1701  1704    1
  1279  1705  1706    1
  1280  1705  1707    1
  1281  1705  1708    1
  1282  1709  1710    1
  1283  1709  1711    1
  1284  1709  1712    1
  1285  1713  1714    1
  1286  1713  1715    1
  1287  1713  1716    1
  1288  1717  1718    1
  1289  1717  1719    1
  1290  1717  1720    1
  1291  1721  1722    1
  1292  1721  1723    1
  1293  1721  1724    1
  1294  1725  1726    1
  1295  1725  1727    1
  1296  1725  1728    1
  1297  1729  1730    1
  1298  1729  1731    1
  1299  1729  1732    1
  1300  1733  1734    1
  1301  1733  1735    1
  1302  1733  1736    1
  1303  1737  1738    1
  1304  1737  1739    1
  1305  1737  1740    1
  1306  1741  1742    1
  1307  1741  1743    1
  1308  1741  1744    1
  1309  1745  1746    1
  1310  1745  1747    1
  1311  1745  1748    1
  1312  1749  1750    1
  1313  1749  1751    1
  1314  1749  1752    1
  1315  1753  1754    1
  1316  1753  1755    1
  1317  1753  1756    1
  1318  1757  1758    1
  1319  1757  1759    1
  1320  1757  1760    1
  1321  1761  1762    1
  1322  1761  1763    1
  1323  1761  1764    1
  1324  1765  1766    1
  1325  1765  1767    1
  1326  1765  1768    1
  1327  1769  1770    1
  1328  1769  1771    1
  1329  1769  1772    1
  1330  1773  1774    1
  1331  1773  1775    1
  1332  1773  1776    1
  1333  1777  1778    1
  1334  1777  1779    1
  1335  1777  1780    1
  1336  1781  1782    1
  1337  1781  1783    1
  1338  1781  1784    1
  1339  1785  1786    1
  1340  1785  1787    1
  1341  1785  1788    1
  1342  1789  1790    1
  1343  1789  1791    1
  1344  1789  1792    1
  1345  1793  1794    1
  1346  1793  1795    1
  1347  1793  1796    1
  1348  1797  1798    1
  1349  1797  1799    1
  1350  1797  1800    1
  1351  1801  1802    1
  1352  1801  1803    1
  1353  1801  1804    1
  1354  1805  1806    1
  1355  1805  1807    1
  1356  1805  1808    1
  1357  1809  1810    1
  1358  1809  1811    1
  1359  1809  1812    1
  1360  1813  1814    1
  1361  1813  1815    1
  1362  1813  1816    1
  1363  1817  1818    1
  1364  1817  1819    1
  1365  1817  1820    1
  1366  1821  1822    1
  1367  1821  1823    1
  1368  1821  1824    1
  1369  1825  1826    1
  1370  1825  1827    1
  1371  1825  1828    1
  1372  1829  1830    1
  1373  1829  1831    1
  1374  1829  1832    1
  1375  1833  1834    1
  1376  1833  1835    1
  1377  1833  1836    1
  1378  1837  1838    1
  1379  1837  1839    1
  1380  1837  1840    1
  1381  1841  1842    1
  1382  1841  1843    1
  1383  1841  1844    1
  1384  1845  1846    1
  1385  1845  1847    1
  1386  1845  1848    1
  1387  1849  1850    1
  1388  1849  1851    1
  1389  1849  1852    1
  1390  1853  1854    1
  1391  1853  1855    1
  1392  1853  1856    1
  1393  1857  1858    1
  1394  1857  1859    1
  1395  1857  1860    1
  1396  1861  1862    1
  1397  1861  1863    1
  1398  1861  1864    1
  1399  1865  1866    1
  1400  1865  1867    1
  1401  1865  1868    1
  1402  1869  1870    1
  1403  1869  1871    1
  1404  1869  1872    1
  1405  1873  1874    1
  1406  1873  1875    1
  1407  1873  1876    1
  1408  1877  1878    1
  1409  1877  1879    1
  1410  1877  1880    1
  1411  1881  1882    1
  1412  1881  1883    1
  1413  1881  1884    1
  1414  1885  1886    1
  1415  1885  1887    1
  1416  1885  1888    1
  1417  1889  1890    1
  1418  1889  1891    1
  1419  1889  1892    1
  1420  1893  1894    1
  1421  1893  1895    1
  1422  1893  1896    1
  1423  1897  1898    1
  1424  1897  1899    1
  1425  1897  1900    1
  1426  1901  1902    1
  1427  1901  1903    1
  1428  1901  1904    1
  1429  1905  1906    1
  1430  1905  1907    1
  1431  1905  1908    1
  1432  1909  1910    1
  1433  1909  1911    1
  1434  1909  1912    1
  1435  1913  1914    1
  1436  1913  1915    1
  1437  1913  1916    1
  1438  1917  1918    1
  1439  1917  1919    1
  1440  1917  1920    1
  1441  1921  1922    1
  1442  1921  1923    1
  1443  1921  1924    1
  1444  1925  1926    1
  1445  1925  1927    1
  1446  1925  1928    1
  1447  1929  1930    1
  1448  1929  1931    1
  1449  1929  1932    1
  1450  1933  1934    1
  1451  1933  1935    1
  1452  1933  1936    1
  1453  1937  1938    1
  1454  1937  1939    1
  1455  1937  1940    1
  1456  1941  1942    1
  1457  1941  1943    1
  1458  1941  1944    1
  1459  1945  1946    1
  1460  1945  1947    1
  1461  1945  1948    1
  1462  1949  1950    1
  1463  1949  1951    1
  1464  1949  1952    1
  1465  1953  1954    1
  1466  1953  1955    1
  1467  1953  1956    1
  1468  1957  1958    1
  1469  1957  1959    1
  1470  1957  1960    1
  1471  1961  1962    1
  1472  1961  1963    1
  1473  1961  1964    1
  1474  1965  1966    1
  1475  1965  1967    1
  1476  1965  1968    1
  1477  1969  1970    1
  1478  1969  1971    1
  1479  1969  1972    1
  1480  1973  1974    1
  1481  1973  1975    1
  1482  1973  1976    1
  1483  1977  1978    1
  1484  1977  1979    1
  1485  1977  1980    1
  1486  1981  1982    1
  1487  1981  1983    1
  1488  1981  1984    1
  1489  1985  1986    1
  1490  1985  1987    1
  1491  1985  1988    1
  1492  1989  1990    1
  1493  1989  1991    1
  1494  1989  1992    1
  1495  1993  1994    1
  1496  1993  1995    1
  1497  1993  1996    1
  1498  1997  1998    1
  1499  1997  1999    1
  1500  1997  2000    1
  1501  2001  2002    1
  1502  2001  2003    1
  1503  2001  2004    1
  1504  2005  2006    1
  1505  2005  2007    1
  1506  2005  2008    1
  1507  2009  2010    1
  1508  2009  2011    1
  1509  2009  2012    1
  1510  2013  2014    1
  1511  2013  2015    1
  1512  2013  2016    1
  1513  2017  2018    1
  1514  2017  2019    1
  1515  2017  2020    1
  1516  2021  2022    1
  1517  2021  2023    1
  1518  2021  2024    1
  1519  2025  2026    1
  1520  2025  2027    1
  1521  2025  2028    1
  1522  2029  2030    1
  1523  2029  2031    1
  1524  2029  2032    1
  1525  2033  2034    1
  1526  2033  2035    1
  1527  2033  2036    1
  1528  2037  2038    1
  1529  2037  2039    1
  1530  2037  2040    1
  1531  2041  2042    1
  1532  2041  2043    1
  1533  2041  2044    1
  1534  2045  2046    1
  1535  2045  2047    1
  1536  2045  2048    1
  1537  2049  2050    1
  1538  2049  2051    1
  1539  2049  2052    1
  1540  2053  2054    1
  1541  2053  2055    1
  1542  2053  2056    1
  1543  2057  2058    1
  1544  2057  2059    1
  1545  2057  2060    1
  1546  2061  2062    1
  1547  2061  2063    1
  1548  2061  2064    1
  1549  2065  2066    1
  1550  2065  2067    1
  1551  2065  2068    1
  1552  2069  2070    1
  1553  2069  2071    1
  1554  2069  2072    1
  1555  2073  2074    1
  1556  2073  2075    1
  1557  2073  2076    1
  1558  2077  2078    1
  1559  2077  2079    1
  1560  2077  2080    1
  1561  2081  2082    1
  1562  2081  2083    1
  1563  2081  2084    1
  1564  2085  2086    1
  1565  2085  2087    1
  1566  2085  2088    1
  1567  2089  2090    1
  1568  2089  2091    1
  1569  2089  2092    1
  1570  2093  2094    1
  1571  2093  2095    1
  1572  2093  2096    1
  1573  2097  2098    1
  1574  2097  2099    1
  1575  2097  2100    1
  1576  2101  2102    1
  1577  2101  2103    1
  1578  2101  2104    1
  1579  2105  2106    1
  1580  2105  2107    1
  1581  2105  2108    1
  1582  2109  2110    1
  1583  2109  2111    1
  1584  2109  2112    1
  1585  2113  2114    1
  1586  2113  2115    1
  1587  2113  2116    1
  1588  2117  2118    1
  1589  2117  2119    1
  1590  2117  2120    1
  1591  2121  2122    1
  1592  2121  2123    1
  1593  2121  2124    1
  1594  2125  2126    1
  1595  2125  2127    1
  1596  2125  2128    1
  1597  2129  2130    1
  1598  2129  2131    1
  1599  2129  2132    1
  1600  2133  2134    1
  1601  2133  2135    1
  1602  2133  2136    1
  1603  2137  2138    1
  1604  2137  2139    1
  1605  2137  2140    1
  1606  2141  2142    1
  1607  2141  2143    1
  1608  2141  2144    1
  1609  2145  2146    1
  1610  2145  2147    1
  1611  2145  2148    1
  1612  2149  2150    1
  1613  2149  2151    1
  1614  2149  2152    1
  1615  2153  2154    1
  1616  2153  2155    1
  1617  2153  2156    1
  1618  2157  2158    1
  1619  2157  2159    1
  1620  2157  2160    1
  1621  2161  2162    1
  1622  2161  2163    1
  1623  2161  2164    1
  1624  2165  2166    1
  1625  2165  2167    1
  1626  2165  2168    1
  1627  2169  2170    1
  1628  2169  2171    1
  1629  2169  2172    1
  1630  2173  2174    1
  1631  2173  2175    1
  1632  2173  2176    1
  1633  2177  2178    1
  1634  2177  2179    1
  1635  2177  2180    1
  1636  2181  2182    1
  1637  2181  2183    1
  1638  2181  2184    1
  1639  2185  2186    1
  1640  2185  2187    1
  1641  2185  2188    1
  1642  2189  2190    1
  1643  2189  2191    1
  1644  2189  2192    1
  1645  2193  2194    1
  1646  2193  2195    1
  1647  2193  2196    1
  1648  2197  2198    1
  1649  2197  2199    1
  1650  2197  2200    1
  1651  2201  2202    1
  1652  2201  2203    1
  1653  2201  2204    1
  1654  2205  2206    1
  1655  2205  2207    1
  1656  2205  2208    1
  1657  2209  2210    1
  1658  2209  2211    1
  1659  2209  2212    1
  1660  2213  2214    1
  1661  2213  2215    1
  1662  2213  2216    1
  1663  2217  2218    1
  1664  2217  2219    1
  1665  2217  2220    1
  1666  2221  2222    1
  1667  2221  2223    1
  1668  2221  2224    1
  1669  2225  2226    1
  1670  2225  2227    1
  1671  2225  2228    1
  1672  2229  2230    1
  1673  2229  2231    1
  1674  2229  2232    1
  1675  2233  2234    1
  1676  2233  2235    1
  1677  2233  2236    1
  1678  2237  2238    1
  1679  2237  2239    1
  1680  2237  2240    1
  1681  2241  2242    1
  1682  2241  2243    1
  1683  2241  2244    1
  1684  2245  2246    1
  1685  2245  2247    1
  1686  2245  2248    1
  1687  2249  2250    1
  1688  2249  2251    1
  1689  2249  2252    1
  1690  2253  2254    1
  1691  2253  2255    1
  1692  2253  2256    1
  1693  2257  2258    1
  1694  2257  2259    1
  1695  2257  2260    1
  1696  2261  2262    1
  1697  2261  2263    1
  1698  2261  2264    1
  1699  2265  2266    1
  1700  2265  2267    1
  1701  2265  2268    1
  1702  2269  2270    1
  1703  2269  2271    1
  1704  2269  2272    1
  1705  2273  2274    1
  1706  2273  2275    1
  1707  2273  2276    1
  1708  2277  2278    1
  1709  2277  2279    1
  1710  2277  2280    1
  1711  2281  2282    1
  1712  2281  2283    1
  1713  2281  2284    1
  1714  2285  2286    1
  1715  2285  2287    1
  1716  2285  2288    1
  1717  2289  2290    1
  1718  2289  2291    1
  1719  2289  2292    1
  1720  2293  2294    1
  1721  2293  2295    1
  1722  2293  2296    1
  1723  2297  2298    1
  1724  2297  2299    1
  1725  2297  2300    1
  1726  2301  2302    1
  1727  2301  2303    1
  1728  2301  2304    1
  1729  2305  2306    1
  1730  2305  2307    1
  1731  2305  2308    1
  1732  2309  2310    1
  1733  2309  2311    1
  1734  2309  2312    1
  1735  2313  2314    1
  1736  2313  2315    1
  1737  2313  2316    1
  1738  2317  2318    1
  1739  2317  2319    1
  1740  2317  2320    1
  1741  2321  2322    1
  1742  2321  2323    1
  1743  2321  2324    1
  1744  2325  2326    1
  1745  2325  2327    1
  1746  2325  2328    1
  1747  2329  2330    1
  1748  2329  2331    1
  1749  2329  2332    1
  1750  2333  2334    1
  1751  2333  2335    1
  1752  2333  2336    1
  1753  2337  2338    1
  1754  2337  2339    1
  1755  2337  2340    1
  1756  2341  2342    1
  1757  2341  2343    1
  1758  2341  2344    1
  1759  2345  2346    1
  1760  2345  2347    1
  1761  2345  2348    1
  1762  2349  2350    1
  1763  2349  2351    1
  1764  2349  2352    1
  1765  2353  2354    1
  1766  2353  2355    1
  1767  2353  2356    1
  1768  2357  2358    1
  1769  2357  2359    1
  1770  2357  2360    1
  1771  2361  2362    1
  1772  2361  2363    1
  1773  2361  2364    1
  1774  2365  2366    1
  1775  2365  2367    1
  1776  2365  2368    1
  1777  2369  2370    1
  1778  2369  2371    1
  1779  2369  2372    1
  1780  2373  2374    1
  1781  2373  2375    1
  1782  2373  2376    1
  1783  2377  2378    1
  1784  2377  2379    1
  1785  2377  2380    1
  1786  2381  2382    1
  1787  2381  2383    1
  1788  2381  2384    1
  1789  2385  2386    1
  1790  2385  2387    1
  1791  2385  2388    1
  1792  2389  2390    1
  1793  2389  2391    1
  1794  2389  2392    1
  1795  2393  2394    1
  1796  2393  2395    1
  1797  2393  2396    1
  1798  2397  2398    1
  1799  2397  2399    1
  1800  2397  2400    1
  1801  2401  2402    1
  1802  2401  2403    1
  1803  2401  2404    1
  1804  2405  2406    1
  1805  2405  2407    1
  1806  2405  2408    1
  1807  2409  2410    1
  1808  2409  2411    1
  1809  2409  2412    1
  1810  2413  2414    1
  1811  2413  2415    1
  1812  2413  2416    1
  1813  2417  2418    1
  1814  2417  2419    1
  1815  2417  2420    1
  1816  2421  2422    1
  1817  2421  2423    1
  1818  2421  2424    1
  1819  2425  2426    1
  1820  2425  2427    1
  1821  2425  2428    1
  1822  2429  2430    1
  1823  2429  2431    1
  1824  2429  2432    1
  1825  2433  2434    1
  1826  2433  2435    1
  1827  2433  2436    1
  1828  2437  2438    1
  1829  2437  2439    1
  1830  2437  2440    1
  1831  2441  2442    1
  1832  2441  2443    1
  1833  2441  2444    1
  1834  2445  2446    1
  1835  2445  2447    1
  1836  2445  2448    1
  1837  2449  2450    1
  1838  2449  2451    1
  1839  2449  2452    1
  1840  2453  2454    1
  1841  2453  2455    1
  1842  2453  2456    1
  1843  2457  2458    1
  1844  2457  2459    1
  1845  2457  2460    1
  1846  2461  2462    1
  1847  2461  2463    1
  1848  2461  2464    1
  1849  2465  2466    1
  1850  2465  2467    1
  1851  2465  2468    1
  1852  2469  2470    1
  1853  2469  2471    1
  1854  2469  2472    1
  1855  2473  2474    1
  1856  2473  2475    1
  1857  2473  2476    1
  1858  2477  2478    1
  1859  2477  2479    1
  1860  2477  2480    1
  1861  2481  2482    1
  1862  2481  2483    1
  1863  2481  2484    1
  1864  2485  2486    1
  1865  2485  2487    1
  1866  2485  2488    1
  1867  2489  2490    1
  1868  2489  2491    1
  1869  2489  2492    1
  1870  2493  2494    1
  1871  2493  2495    1
  1872  2493  2496    1
  1873  2497  2498    1
  1874  2497  2499    1
  1875  2497  2500    1
  1876  2501  2502    1
  1877  2501  2503    1
  1878  2501  2504    1
  1879  2505  2506    1
  1880  2505  2507    1
  1881  2505  2508    1
  1882  2509  2510    1
  1883  2509  2511    1
  1884  2509  2512    1
  1885  2513  2514    1
  1886  2513  2515    1
  1887  2513  2516    1
  1888  2517  2518    1
  1889  2517  2519    1
  1890  2517  2520    1
  1891  2521  2522    1
  1892  2521  2523    1
  1893  2521  2524    1
  1894  2525  2526    1
  1895  2525  2527    1
  1896  2525  2528    1
  1897  2529  2530    1
  1898  2529  2531    1
  1899  2529  2532    1
  1900  2533  2534    1
  1901  2533  2535    1
  1902  2533  2536    1
  1903  2537  2538    1
  1904  2537  2539    1
  1905  2537  2540    1
  1906  2541  2542    1
  1907  2541  2543    1
  1908  2541  2544    1
  1909  2545  2546    1
  1910  2545  2547    1
  1911  2545  2548    1
  1912  2549  2550    1
  1913  2549  2551    1
  1914  2549  2552    1
  1915  2553  2554    1
  1916  2553  2555    1
  1917  2553  2556    1
  1918  2557  2558    1
  1919  2557  2559    1
  1920  2557  2560    1
  1921  2561  2562    1
  1922  2561  2563    1
  1923  2561  2564    1
  1924  2565  2566    1
  1925  2565  2567    1
  1926  2565  2568    1
  1927  2569  2570    1
  1928  2569  2571    1
  1929  2569  2572    1
  1930  2573  2574    1
  1931  2573  2575    1
  1932  2573  2576    1
  1933  2577  2578    1
  1934  2577  2579    1
  1935  2577  2580    1
  1936  2581  2582    1
  1937  2581  2583    1
  1938  2581  2584    1
  1939  2585  2586    1
  1940  2585  2587    1
  1941  2585  2588    1
  1942  2589  2590    1
  1943  2589  2591    1
  1944  2589  2592    1
  1945  2593  2594    1
  1946  2593  2595    1
  1947  2593  2596    1
  1948  2597  2598    1
  1949  2597  2599    1
  1950  2597  2600    1
  1951  2601  2602    1
  1952  2601  2603    1
  1953  2601  2604    1
  1954  2605  2606    1
  1955  2605  2607    1
  1956  2605  2608    1
  1957  2609  2610    1
  1958  2609  2611    1
  1959  2609  2612    1
  1960  2613  2614    1
  1961  2613  2615    1
  1962  2613  2616    1
  1963  2617  2618    1
  1964  2617  2619    1
  1965  2617  2620    1
  1966  2621  2622    1
  1967  2621  2623    1
  1968  2621  2624    1
  1969  2625  2626    1
  1970  2625  2627    1
  1971  2625  2628    1
  1972  2629  2630    1
  1973  2629  2631    1
  1974  2629  2632    1
  1975  2633  2634    1
  1976  2633  2635    1
  1977  2633  2636    1
  1978  2637  2638    1
  1979  2637  2639    1
  1980  2637  2640    1
  1981  2641  2642    1
  1982  2641  2643    1
  1983  2641  2644    1
  1984  2645  2646    1
  1985  2645  2647    1
  1986  2645  2648    1
  1987  2649  2650    1
  1988  2649  2651    1
  1989  2649  2652    1
  1990  2653  2654    1
  1991  2653  2655    1
  1992  2653  2656    1
  1993  2657  2658    1
  1994  2657  2659    1
  1995  2657  2660    1
  1996  2661  2662    1
  1997  2661  2663    1
  1998  2661  2664    1
  1999  2665  2666    1
  2000  2665  2667    1
  2001  2665  2668    1
  2002  2669  2670    1
  2003  2669  2671    1
  2004  2669  2672    1
  2005  2673  2674    1
  2006  2673  2675    1
  2007  2673  2676    1
  2008  2677  2678    1
  2009  2677  2679    1
  2010  2677  2680    1
  2011  2681  2682    1
  2012  2681  2683    1
  2013  2681  2684    1
  2014  2685  2686    1
  2015  2685  2687    1
  2016  2685  2688    1
  2017  2689  2690    1
  2018  2689  2691    1
  2019  2689  2692    1
  2020  2693  2694    1
  2021  2693  2695    1
  2022  2693  2696    1
  2023  2697  2698    1
  2024  2697  2699    1
  2025  2697  2700    1
  2026  2701  2702    1
  2027  2701  2703    1
  2028  2701  2704    1
  2029  2705  2706    1
  2030  2705  2707    1
  2031  2705  2708    1
  2032  2709  2710    1
  2033  2709  2711    1
  2034  2709  2712    1
  2035  2713  2714    1
  2036  2713  2715    1
  2037  2713  2716    1
  2038  2717  2718    1
  2039  2717  2719    1
  2040  2717  2720    1
  2041  2721  2722    1
  2042  2721  2723    1
  2043  2721  2724    1
  2044  2725  2726    1
  2045  2725  2727    1
  2046  2725  2728    1
  2047  2729  2730    1
  2048  2729  2731    1
  2049  2729  2732    1
  2050  2733  2734    1
  2051  2733  2735    1
  2052  2733  2736    1
  2053  2737  2738    1
  2054  2737  2739    1
  2055  2737  2740    1
  2056  2741  2742    1
  2057  2741  2743    1
  2058  2741  2744    1
  2059  2745  2746    1
  2060  2745  2747    1
  2061  2745  2748    1
  2062  2749  2750    1
  2063  2749  2751    1
  2064  2749  2752    1
  2065  2753  2754    1
  2066  2753  2755    1
  2067  2753  2756    1
  2068  2757  2758    1
  2069  2757  2759    1
  2070  2757  2760    1
  2071  2761  2762    1
  2072  2761  2763    1
  2073  2761  2764    1
  2074  2765  2766    1
  2075  2765  2767    1
  2076  2765  2768    1
  2077  2769  2770    1
  2078  2769  2771    1
  2079  2769  2772    1
  2080  2773  2774    1
  2081  2773  2775    1
  2082  2773  2776    1
  2083  2777  2778    1
  2084  2777  2779    1
  2085  2777  2780    1
  2086  2781  2782    1
  2087  2781  2783    1
  2088  2781  2784    1
  2089  2785  2786    1
  2090  2785  2787    1
  2091  2785  2788    1
  2092  2789  2790    1
  2093  2789  2791    1
  2094  2789  2792    1
  2095  2793  2794    1
  2096  2793  2795    1
  2097  2793  2796    1
  2098  2797  2798    1
  2099  2797  2799    1
  2100  2797  2800    1
  2101  2801  2802    1
  2102  2801  2803    1
  2103  2801  2804    1
  2104  2805  2806    1
  2105  2805  2807    1
  2106  2805  2808    1
  2107  2809  2810    1
  2108  2809  2811    1
  2109  2809  2812    1
  2110  2813  2814    1
  2111  2813  2815    1
  2112  2813  2816    1
  2113  2817  2818    1
  2114  2817  2819    1
  2115  2817  2820    1
  2116  2821  2822    1
  2117  2821  2823    1
  2118  2821  2824    1
  2119  2825  2826    1
  2120  2825  2827    1
  2121  2825  2828    1
  2122  2829  2830    1
  2123  2829  2831    1
  2124  2829  2832    1
  2125  2833  2834    1
  2126  2833  2835    1
  2127  2833  2836    1
  2128  2837  2838    1
  2129  2837  2839    1
  2130  2837  2840    1
  2131  2841  2842    1
  2132  2841  2843    1
  2133  2841  2844    1
  2134  2845  2846    1
  2135  2845  2847    1
  2136  2845  2848    1
  2137  2849  2850    1
  2138  2849  2851    1
  2139  2849  2852    1
  2140  2853  2854    1
  2141  2853  2855    1
  2142  2853  2856    1
  2143  2857  2858    1
  2144  2857  2859    1
  2145  2857  2860    1
  2146  2861  2862    1
  2147  2861  2863    1
  2148  2861  2864    1
  2149  2865  2866    1
  2150  2865  2867    1
  2151  2865  2868    1
  2152  2869  2870    1
  2153  2869  2871    1
  2154  2869  2872    1
  2155  2873  2874    1
  2156  2873  2875    1
  2157  2873  2876    1
  2158  2877  2878    1
  2159  2877  2879    1
  2160  2877  2880    1
  2161  2881  2882    1
  2162  2881  2883    1
  2163  2881  2884    1
  2164  2885  2886    1
  2165  2885  2887    1
  2166  2885  2888    1
  2167  2889  2890    1
  2168  2889  2891    1
  2169  2889  2892    1
  2170  2893  2894    1
  2171  2893  2895    1
  2172  2893  2896    1
  2173  2897  2898    1
  2174  2897  2899    1
  2175  2897  2900    1
  2176  2901  2902    1
  2177  2901  2903    1
  2178  2901  2904    1
  2179  2905  2906    1
  2180  2905  2907    1
  2181  2905  2908    1
  2182  2909  2910    1
  2183  2909  2911    1
  2184  2909  2912    1
  2185  2913  2914    1
  2186  2913  2915    1
  2187  2913  2916    1
  2188  2917  2918    1
  2189  2917  2919    1
  2190  2917  2920    1
  2191  2921  2922    1
  2192  2921  2923    1
  2193  2921  2924    1
  2194  2925  2926    1
  2195  2925  2927    1
  2196  2925  2928    1
  2197  2929  2930    1
  2198  2929  2931    1
  2199  2929  2932    1
  2200  2933  2934    1
  2201  2933  2935    1
  2202  2933  2936    1
  2203  2937  2938    1
  2204  2937  2939    1
  2205  2937  2940    1
  2206  2941  2942    1
  2207  2941  2943    1
  2208  2941  2944    1
  2209  2945  2946    1
  2210  2945  2947    1
  2211  2945  2948    1
  2212  2949  2950    1
  2213  2949  2951    1
  2214  2949  2952    1
  2215  2953  2954    1
  2216  2953  2955    1
  2217  2953  2956    1
  2218  2957  2958    1
  2219  2957  2959    1
  2220  2957  2960    1
  2221  2961  2962    1
  2222  2961  2963    1
  2223  2961  2964    1
  2224  2965  2966    1
  2225  2965  2967    1
  2226  2965  2968    1
  2227  2969  2970    1
  2228  2969  2971    1
  2229  2969  2972    1
  2230  2973  2974    1
  2231  2973  2975    1
  2232  2973  2976    1
  2233  2977  2978    1
  2234  2977  2979    1
  2235  2977  2980    1
  2236  2981  2982    1
  2237  2981  2983    1
  2238  2981  2984    1
  2239  2985  2986    1
  2240  2985  2987    1
  2241  2985  2988    1
  2242  2989  2990    1
  2243  2989  2991    1
  2244  2989  2992    1
  2245  2993  2994    1
  2246  2993  2995    1
  2247  2993  2996    1
  2248  2997  2998    1
  2249  2997  2999    1
  2250  2997  3000    1
  2251  3001  3002    1
  2252  3001  3003    1
  2253  3001  3004    1
  2254  3005  3006    1
  2255  3005  3007    1
  2256  3005  3008    1
  2257  3009  3010    1
  2258  3009  3011    1
  2259  3009  3012    1
  2260  3013  3014    1
  2261  3013  3015    1
  2262  3013  3016    1
  2263  3017  3018    1
  2264  3017  3019    1
  2265  3017  3020    1
  2266  3021  3022    1
  2267  3021  3023    1
  2268  3021  3024    1
  2269  3025  3026    1
  2270  3025  3027    1
  2271  3025  3028    1
  2272  3029  3030    1
  2273  3029  3031    1
  2274  3029  3032    1
  2275  3033  3034    1
  2276  3033  3035    1
  2277  3033  3036    1
  2278  3037  3038    1
  2279  3037  3039    1
  2280  3037  3040    1
  2281  3041  3042    1
  2282  3041  3043    1
  2283  3041  3044    1
  2284  3045  3046    1
  2285  3045  3047    1
  2286  3045  3048    1
  2287  3049  3050    1
  2288  3049  3051    1
  2289  3049  3052    1
  2290  3053  3054    1
  2291  3053  3055    1
  2292  3053  3056    1
  2293  3057  3058    1
  2294  3057  3059    1
  2295  3057  3060    1
  2296  3061  3062    1
  2297  3061  3063    1
  2298  3061  3064    1
  2299  3065  3066    1
  2300  3065  3067    1
  2301  3065  3068    1
  2302  3069  3070    1
  2303  3069  3071    1
  2304  3069  3072    1
  2305  3073  3074    1
  2306  3073  3075    1
  2307  3073  3076    1
  2308  3077  3078    1
  2309  3077  3079    1
  2310  3077  3080    1
  2311  3081  3082    1
  2312  3081  3083    1
  2313  3081  3084    1
  2314  3085  3086    1
  2315  3085  3087    1
  2316  3085  3088    1
  2317  3089  3090    1
  2318  3089  3091    1
  2319  3089  3092    1
  2320  3093  3094    1
  2321  3093  3095    1
  2322  3093  3096    1
  2323  3097  3098    1
  2324  3097  3099    1
  2325  3097  3100    1
  2326  3101  3102    1
  2327  3101  3103    1
  2328  3101  3104    1
  2329  3105  3106    1
  2330  3105  3107    1
  2331  3105  3108    1
  2332  3109  3110    1
  2333  3109  3111    1
  2334  3109  3112    1
  2335  3113  3114    1
  2336  3113  3115    1
  2337  3113  3116    1
  2338  3117  3118    1
  2339  3117  3119    1
  2340  3117  3120    1
  2341  3121  3122    1
  2342  3121  3123    1
  2343  3121  3124    1
  2344  3125  3126    1
  2345  3125  3127    1
  2346  3125  3128    1
  2347  3129  3130    1
  2348  3129  3131    1
  2349  3129  3132    1
  2350  3133  3134    1
  2351  3133  3135    1
  2352  3133  3136    1
  2353  3137  3138    1
  2354  3137  3139    1
  2355  3137  3140    1
  2356  3141  3142    1
  2357  3141  3143    1
  2358  3141  3144    1
  2359  3145  3146    1
  2360  3145  3147    1
  2361  3145  3148    1
  2362  3149  3150    1
  2363  3149  3151    1
  2364  3149  3152    1
  2365  3153  3154    1
  2366  3153  3155    1
  2367  3153  3156    1
  2368  3157  3158    1
  2369  3157  3159    1
  2370  3157  3160    1
  2371  3161  3162    1
  2372  3161  3163    1
  2373  3161  3164    1
  2374  3165  3166    1
  2375  3165  3167    1
  2376  3165  3168    1
  2377  3169  3170    1
  2378  3169  3171    1
  2379  3169  3172    1
  2380  3173  3174    1
  2381  3173  3175    1
  2382  3173  3176    1
  2383  3177  3178    1
  2384  3177  3179    1
  2385  3177  3180    1
  2386  3181  3182    1
  2387  3181  3183    1
  2388  3181  3184    1
  2389  3185  3186    1
  2390  3185  3187    1
  2391  3185  3188    1
  2392  3189  3190    1
  2393  3189  3191    1
  2394  3189  3192    1
  2395  3193  3194    1
  2396  3193  3195    1
  2397  3193  3196    1
  2398  3197  3198    1
  2399  3197  3199    1
  2400  3197  3200    1
  2401  3201  3202    1
  2402  3201  3203    1
  2403  3201  3204    1
  2404  3205  3206    1
  2405  3205  3207    1
  2406  3205  3208    1
  2407  3209  3210    1
  2408  3209  3211    1
  2409  3209  3212    1
  2410  3213  3214    1
  2411  3213  3215    1
  2412  3213  3216    1
  2413  3217  3218    1
  2414  3217  3219    1
  2415  3217  3220    1
  2416  3221  3222    1
  2417  3221  3223    1
  2418  3221  3224    1
  2419  3225  3226    1
  2420  3225  3227    1
  2421  3225  3228    1
  2422  3229  3230    1
  2423  3229  3231    1
  2424  3229  3232    1
  2425  3233  3234    1
  2426  3233  3235    1
  2427  3233  3236    1
  2428  3237  3238    1
  2429  3237  3239    1
  2430  3237  3240    1
  2431  3241  3242    1
  2432  3241  3243    1
  2433  3241  3244    1
  2434  3245  3246    1
  2435  3245  3247    1
  2436  3245  3248    1
  2437  3249  3250    1
  2438  3249  3251    1
  2439  3249  3252    1
  2440  3253  3254    1
  2441  3253  3255    1
  2442  3253  3256    1
  2443  3257  3258    1
  2444  3257  3259    1
  2445  3257  3260    1
  2446  3261  3262    1
  2447  3261  3263    1
  2448  3261  3264    1
  2449  3265  3266    1
  2450  3265  3267    1
  2451  3265  3268    1
  2452  3269  3270    1
  2453  3269  3271    1
  2454  3269  3272    1
  2455  3273  3274    1
  2456  3273  3275    1
  2457  3273  3276    1
  2458  3277  3278    1
  2459  3277  3279    1
  2460  3277  3280    1
  2461  3281  3282    1
  2462  3281  3283    1
  2463  3281  3284    1
  2464  3285  3286    1
  2465  3285  3287    1
  2466  3285  3288    1
  2467  3289  3290    1
  2468  3289  3291    1
  2469  3289  3292    1
  2470  3293  3294    1
  2471  3293  3295    1
  2472  3293  3296    1
  2473  3297  3298    1
  2474  3297  3299    1
  2475  3297  3300    1
  2476  3301  3302    1
  2477  3301  3303    1
  2478  3301  3304    1
  2479  3305  3306    1
  2480  3305  3307    1
  2481  3305  3308    1
  2482  3309  3310    1
  2483  3309  3311    1
  2484  3309  3312    1
  2485  3313  3314    1
  2486  3313  3315    1
  2487  3313  3316    1
  2488  3317  3318    1
  2489  3317  3319    1
  2490  3317  3320    1
  2491  3321  3322    1
  2492  3321  3323    1
  2493  3321  3324    1
  2494  3325  3326    1
  2495  3325  3327    1
  2496  3325  3328    1
  2497  3329  3330    1
  2498  3329  3331    1
  2499  3329  3332    1
  2500  3333  3334    1
  2501  3333  3335    1
  2502  3333  3336    1
  2503  3337  3338    1
  2504  3337  3339    1
  2505  3337  3340    1
  2506  3341  3342    1
  2507  3341  3343    1
  2508  3341  3344    1
  2509  3345  3346    1
  2510  3345  3347    1
  2511  3345  3348    1
  2512  3349  3350    1
  2513  3349  3351    1
  2514  3349  3352    1
  2515  3353  3354    1
  2516  3353  3355    1
  2517  3353  3356    1
  2518  3357  3358    1
  2519  3357  3359    1
  2520  3357  3360    1
  2521  3361  3362    1
  2522  3361  3363    1
  2523  3361  3364    1
  2524  3365  3366    1
  2525  3365  3367    1
  2526  3365  3368    1
  2527  3369  3370    1
  2528  3369  3371    1
  2529  3369  3372    1
  2530  3373  3374    1
  2531  3373  3375    1
  2532  3373  3376    1
  2533  3377  3378    1
  2534  3377  3379    1
  2535  3377  3380    1
  2536  3381  3382    1
  2537  3381  3383    1
  2538  3381  3384    1
  2539  3385  3386    1
  2540  3385  3387    1
  2541  3385  3388    1
  2542  3389  3390    1
  2543  3389  3391    1
  2544  3389  3392    1
  2545  3393  3394    1
  2546  3393  3395    1
  2547  3393  3396    1
  2548  3397  3398    1
  2549  3397  3399    1
  2550  3397  3400    1
  2551  3401  3402    1
  2552  3401  3403    1
  2553  3401  3404    1
  2554  3405  3406    1
  2555  3405  3407    1
  2556  3405  3408    1
  2557  3409  3410    1
  2558  3409  3411    1
  2559  3409  3412    1
  2560  3413  3414    1
  2561  3413  3415    1
  2562  3413  3416    1
  2563  3417  3418    1
  2564  3417  3419    1
  2565  3417  3420    1
  2566  3421  3422    1
  2567  3421  3423    1
  2568  3421  3424    1
  2569  3425  3426    1
  2570  3425  3427    1
  2571  3425  3428    1
  2572  3429  3430    1
  2573  3429  3431    1
  2574  3429  3432    1
  2575  3433  3434    1
  2576  3433  3435    1
  2577  3433  3436    1
  2578  3437  3438    1
  2579  3437  3439    1
  2580  3437  3440    1
  2581  3441  3442    1
  2582  3441  3443    1
  2583  3441  3444    1
  2584  3445  3446    1
  2585  3445  3447    1
  2586  3445  3448    1
  2587  3449  3450    1
  2588  3449  3451    1
  2589  3449  3452    1
  2590  3453  3454    1
  2591  3453  3455    1
  2592  3453  3456    1
  2593  3457  3458    1
  2594  3457  3459    1
  2595  3457  3460    1
  2596  3461  3462    1
  2597  3461  3463    1
  2598  3461  3464    1
  2599  3465  3466    1
  2600  3465  3467    1
  2601  3465  3468    1
  2602  3469  3470    1
  2603  3469  3471    1
  2604  3469  3472    1
  2605  3473  3474    1
  2606  3473  3475    1
  2607  3473  3476    1
  2608  3477  3478    1
  2609  3477  3479    1
  2610  3477  3480    1
  2611  3481  3482    1
  2612  3481  3483    1
  2613  3481  3484    1
  2614  3485  3486    1
  2615  3485  3487    1
  2616  3485  3488    1
  2617  3489  3490    1
  2618  3489  3491    1
  2619  3489  3492    1
  2620  3493  3494    1
  2621  3493  3495    1
  2622  3493  3496    1
  2623  3497  3498    1
  2624  3497  3499    1
  2625  3497  3500    1
  2626  3501  3502    1
  2627  3501  3503    1
  2628  3501  3504    1
  2629  3505  3506    1
  2630  3505  3507    1
  2631  3505  3508    1
  2632  3509  3510    1
  2633  3509  3511    1
  2634  3509  3512    1
  2635  3513  3514    1
  2636  3513  3515    1
  2637  3513  3516    1
  2638  3517  3518    1
  2639  3517  3519    1
  2640  3517  3520    1
  2641  3521  3522    1
  2642  3521  3523    1
  2643  3521  3524    1
  2644  3525  3526    1
  2645  3525  3527    1
  2646  3525  3528    1
  2647  3529  3530    1
  2648  3529  3531    1
  2649  3529  3532    1
  2650  3533  3534    1
  2651  3533  3535    1
  2652  3533  3536    1
  2653  3537  3538    1
  2654  3537  3539    1
  2655  3537  3540    1
  2656  3541  3542    1
  2657  3541  3543    1
  2658  3541  3544    1
  2659  3545  3546    1
  2660  3545  3547    1
  2661  3545  3548    1
  2662  3549  3550    1
  2663  3549  3551    1
  2664  3549  3552    1
  2665  3553  3554    1
  2666  3553  3555    1
  2667  3553  3556    1
  2668  3557  3558    1
  2669  3557  3559    1
  2670  3557  3560    1
  2671  3561  3562    1
  2672  3561  3563    1
  2673  3561  3564    1
  2674  3565  3566    1
  2675  3565  3567    1
  2676  3565  3568    1
  2677  3569  3570    1
  2678  3569  3571    1
  2679  3569  3572    1
  2680  3573  3574    1
  2681  3573  3575    1
  2682  3573  3576    1
  2683  3577  3578    1
  2684  3577  3579    1
  2685  3577  3580    1
  2686  3581  3582    1
  2687  3581  3583    1
  2688  3581  3584    1
  2689  3585  3586    1
  2690  3585  3587    1
  2691  3585  3588    1
  2692  3589  3590    1
  2693  3589  3591    1
  2694  3589  3592    1
  2695  3593  3594    1
  2696  3593  3595    1
  2697  3593  3596    1
  2698  3597  3598    1
  2699  3597  3599    1
  2700  3597  3600    1
  2701  3601  3602    1
  2702  3601  3603    1
  2703  3601  3604    1
  2704  3605  3606    1
  2705  3605  3607    1
  2706  3605  3608    1
  2707  3609  3610    1
  2708  3609  3611    1
  2709  3609  3612    1
  2710  3613  3614    1
  2711  3613  3615    1
  2712  3613  3616    1
  2713  3617  3618    1
  2714  3617  3619    1
  2715  3617  3620    1
  2716  3621  3622    1
  2717  3621  3623    1
  2718  3621  3624    1
  2719  3625  3626    1
  2720  3625  3627    1
  2721  3625  3628    1
  2722  3629  3630    1
  2723  3629  3631    1
  2724  3629  3632    1
  2725  3633  3634    1
  2726  3633  3635    1
  2727  3633  3636    1
  2728  3637  3638    1
  2729  3637  3639    1
  2730  3637  3640    1
  2731  3641  3642    1
  2732  3641  3643    1
  2733  3641  3644    1
  2734  3645  3646    1
  2735  3645  3647    1
  2736  3645  3648    1
  2737  3649  3650    1
  2738  3649  3651    1
  2739  3649  3652    1
  2740  3653  3654    1
  2741  3653  3655    1
  2742  3653  3656    1
  2743  3657  3658    1
  2744  3657  3659    1
  2745  3657  3660    1
  2746  3661  3662    1
  2747  3661  3663    1
  2748  3661  3664    1
  2749  3665  3666    1
  2750  3665  3667    1
  2751  3665  3668    1
  2752  3669  3670    1
  2753  3669  3671    1
  2754  3669  3672    1
  2755  3673  3674    1
  2756  3673  3675    1
  2757  3673  3676    1
  2758  3677  3678    1
  2759  3677  3679    1
  2760  3677  3680    1
  2761  3681  3682    1
  2762  3681  3683    1
  2763  3681  3684    1
  2764  3685  3686    1
  2765  3685  3687    1
  2766  3685  3688    1
  2767  3689  3690    1
  2768  3689  3691    1
  2769  3689  3692    1
  2770  3693  3694    1
  2771  3693  3695    1
  2772  3693  3696    1
  2773  3697  3698    1
  2774  3697  3699    1
  2775  3697  3700    1
  2776  3701  3702    1
  2777  3701  3703    1
  2778  3701  3704    1
  2779  3705  3706    1
  2780  3705  3707    1
  2781  3705  3708    1
  2782  3709  3710    1
  2783  3709  3711    1
  2784  3709  3712    1
  2785  3713  3714    1
  2786  3713  3715    1
  2787  3713  3716    1
  2788  3717  3718    1
  2789  3717  3719    1
  2790  3717  3720    1
  2791  3721  3722    1
  2792  3721  3723    1
  2793  3721  3724    1
  2794  3725  3726    1
  2795  3725  3727    1
  2796  3725  3728    1
  2797  3729  3730    1
  2798  3729  3731    1
  2799  3729  3732    1
  2800  3733  3734    1
  2801  3733  3735    1
  2802  3733  3736    1
  2803  3737  3738    1
  2804  3737  3739    1
  2805  3737  3740    1
  2806  3741  3742    1
  2807  3741  3743    1
  2808  3741  3744    1
  2809  3745  3746    1
  2810  3745  3747    1
  2811  3745  3748    1
  2812  3749  3750    1
  2813  3749  3751    1
  2814  3749  3752    1
  2815  3753  3754    1
  2816  3753  3755    1
  2817  3753  3756    1
  2818  3757  3758    1
  2819  3757  3759    1
  2820  3757  3760    1
  2821  3761  3762    1
  2822  3761  3763    1
  2823  3761  3764    1
  2824  3765  3766    1
  2825  3765  3767    1
  2826  3765  3768    1
  2827  3769  3770    1
  2828  3769  3771    1
  2829  3769  3772    1
  2830  3773  3774    1
  2831  3773  3775    1
  2832  3773  3776    1
  2833  3777  3778    1
  2834  3777  3779    1
  2835  3777  3780    1
  2836  3781  3782    1
  2837  3781  3783    1
  2838  3781  3784    1
  2839  3785  3786    1
  2840  3785  3787    1
  2841  3785  3788    1
  2842  3789  3790    1
  2843  3789  3791    1
  2844  3789  3792    1
  2845  3793  3794    1
  2846  3793  3795    1
  2847  3793  3796    1
  2848  3797  3798    1
  2849  3797  3799    1
  2850  3797  3800    1
  2851  3801  3802    1
  2852  3801  3803    1
  2853  3801  3804    1
  2854  3805  3806    1
  2855  3805  3807    1
  2856  3805  3808    1
  2857  3809  3810    1
  2858  3809  3811    1
  2859  3809  3812    1
  2860  3813  3814    1
  2861  3813  3815    1
  2862  3813  3816    1
  2863  3817  3818    1
  2864  3817  3819    1
  2865  3817  3820    1
  2866  3821  3822    1
  2867  3821  3823    1
  2868  3821  3824    1
  2869  3825  3826    1
  2870  3825  3827    1
  2871  3825  3828    1
  2872  3829  3830    1
  2873  3829  3831    1
  2874  3829  3832    1
  2875  3833  3834    1
  2876  3833  3835    1
  2877  3833  3836    1
  2878  3837  3838    1
  2879  3837  3839    1
  2880  3837  3840    1
  2881  3841  3842    1
  2882  3841  3843    1
  2883  3841  3844    1
  2884  3845  3846    1
  2885  3845  3847    1
  2886  3845  3848    1
  2887  3849  3850    1
  2888  3849  3851    1
  2889  3849  3852    1
  2890  3853  3854    1
  2891  3853  3855    1
  2892  3853  3856    1
  2893  3857  3858    1
  2894  3857  3859    1
  2895  3857  3860    1
  2896  3861  3862    1
  2897  3861  3863    1
  2898  3861  3864    1
  2899  3865  3866    1
  2900  3865  3867    1
  2901  3865  3868    1
  2902  3869  3870    1
  2903  3869  3871    1
  2904  3869  3872    1
  2905  3873  3874    1
  2906  3873  3875    1
  2907  3873  3876    1
  2908  3877  3878    1
  2909  3877  3879    1
  2910  3877  3880    1
  2911  3881  3882    1
  2912  3881  3883    1
  2913  3881  3884    1
  2914  3885  3886    1
  2915  3885  3887    1
  2916  3885  3888    1
  2917  3889  3890    1
  2918  3889  3891    1
  2919  3889  3892    1
  2920  3893  3894    1
  2921  3893  3895    1
  2922  3893  3896    1
  2923  3897  3898    1
  2924  3897  3899    1
  2925  3897  3900    1
  2926  3901  3902    1
  2927  3901  3903    1
  2928  3901  3904    1
  2929  3905  3906    1
  2930  3905  3907    1
  2931  3905  3908    1
  2932  3909  3910    1
  2933  3909  3911    1
  2934  3909  3912    1
  2935  3913  3914    1
  2936  3913  3915    1
  2937  3913  3916    1
  2938  3917  3918    1
  2939  3917  3919    1
  2940  3917  3920    1
  2941  3921  3922    1
  2942  3921  3923    1
  2943  3921  3924    1
  2944  3925  3926    1
  2945  3925  3927    1
  2946  3925  3928    1
  2947  3929  3930    1
  2948  3929  3931    1
  2949  3929  3932    1
  2950  3933  3934    1
  2951  3933  3935    1
  2952  3933  3936    1
  2953  3937  3938    1
  2954  3937  3939    1
  2955  3937  3940    1
  2956  3941  3942    1
  2957  3941  3943    1
  2958  3941  3944    1
  2959  3945  3946    1
  2960  3945  3947    1
  2961  3945  3948    1
  2962  3949  3950    1
  2963  3949  3951    1
  2964  3949  3952    1
  2965  3953  3954    1
  2966  3953  3955    1
  2967  3953  3956    1
  2968  3957  3958    1
  2969  3957  3959    1
  2970  3957  3960    1
  2971  3961  3962    1
  2972  3961  3963    1
  2973  3961  3964    1
  2974  3965  3966    1
  2975  3965  3967    1
  2976  3965  3968    1
  2977  3969  3970    1
  2978  3969  3971    1
  2979  3969  3972    1
  2980  3973  3974    1
  2981  3973  3975    1
  2982  3973  3976    1
  2983  3977  3978    1
  2984  3977  3979    1
  2985  3977  3980    1
  2986  3981  3982    1
  2987  3981  3983    1
  2988  3981  3984    1
  2989  3985  3986    1
  2990  3985  3987    1
  2991  3985  3988    1
  2992  3989  3990    1
  2993  3989  3991    1
  2994  3989  3992    1
  2995  3993  3994    1
  2996  3993  3995    1
  2997  3993  3996    1
  2998  3997  3998    1
  2999  3997  3999    1
  3000  3997  4000    1
  3001  4001  4002    1
  3002  4001  4003    1
  3003  4001  4004    1
  3004  4005  4006    1
  3005  4005  4007    1
  3006  4005  4008    1
  3007  4009  4010    1
  3008  4009  4011    1
  3009  4009  4012    1
  3010  4013  4014    1
  3011  4013  4015    1
  3012  4013  4016    1
  3013  4017  4018    1
  3014  4017  4019    1
  3015  4017  4020    1
  3016  4021  4022    1
  3017  4021  4023    1
  3018  4021  4024    1
  3019  4025  4026    1
  3020  4025  4027    1
  3021  4025  4028    1
  3022  4029  4030    1
  3023  4029  4031    1
  3024  4029  4032    1
  3025  4033  4034    1
  3026  4033  4035    1
  3027  4033  4036    1
  3028  4037  4038    1
  3029  4037  4039    1
  3030  4037  4040    1
  3031  4041  4042    1
  3032  4041  4043    1
  3033  4041  4044    1
  3034  4045  4046    1
  3035  4045  4047    1
  3036  4045  4048    1
  3037  4049  4050    1
  3038  4049  4051    1
  3039  4049  4052    1
  3040  4053  4054    1
  3041  4053  4055    1
  3042  4053  4056    1
  3043  4057  4058    1
  3044  4057  4059    1
  3045  4057  4060    1
  3046  4061  4062    1
  3047  4061  4063    1
  3048  4061  4064    1
  3049  4065  4066    1
  3050  4065  4067    1
  3051  4065  4068    1
  3052  4069  4070    1
  3053  4069  4071    1
  3054  4069  4072    1
  3055  4073  4074    1
  3056  4073  4075    1
  3057  4073  4076    1
  3058  4077  4078    1
  3059  4077  4079    1
  3060  4077  4080    1
  3061  4081  4082    1
  3062  4081  4083    1
  3063  4081  4084    1
  3064  4085  4086    1
  3065  4085  4087    1
  3066  4085  4088    1
  3067  4089  4090    1
  3068  4089  4091    1
  3069  4089  4092    1
  3070  4093  4094    1
  3071  4093  4095    1
  3072  4093  4096    1
  3073  4097  4098    1
  3074  4097  4099    1
  3075  4097  4100    1
  3076  4101  4102    1
  3077  4101  4103    1
  3078  4101  4104    1
  3079  4105  4106    1
  3080  4105  4107    1
  3081  4105  4108    1
  3082  4109  4110    1
  3083  4109  4111    1
  3084  4109  4112    1
  3085  4113  4114    1
  3086  4113  4115    1
  3087  4113  4116    1
  3088  4117  4118    1
  3089  4117  4119    1
  3090  4117  4120    1
  3091  4121  4122    1
  3092  4121  4123    1
  3093  4121  4124    1
  3094  4125  4126    1
  3095  4125  4127    1
  3096  4125  4128    1
  3097  4129  4130    1
  3098  4129  4131    1
  3099  4129  4132    1
  3100  4133  4134    1
  3101  4133  4135    1
  3102  4133  4136    1
  3103  4137  4138    1
  3104  4137  4139    1
  3105  4137  4140    1
  3106  4141  4142    1
  3107  4141  4143    1
  3108  4141  4144    1
  3109  4145  4146    1
  3110  4145  4147    1
  3111  4145  4148    1
  3112  4149  4150    1
  3113  4149  4151    1
  3114  4149  4152    1
  3115  4153  4154    1
  3116  4153  4155    1
  3117  4153  4156    1
  3118  4157  4158    1
  3119  4157  4159    1
  3120  4157  4160    1
  3121  4161  4162    1
  3122  4161  4163    1
  3123  4161  4164    1
  3124  4165  4166    1
  3125  4165  4167    1
  3126  4165  4168    1
  3127  4169  4170    1
  3128  4169  4171    1
  3129  4169  4172    1
  3130  4173  4174    1
  3131  4173  4175    1
  3132  4173  4176    1
  3133  4177  4178    1
  3134  4177  4179    1
  3135  4177  4180    1
  3136  4181  4182    1
  3137  4181  4183    1
  3138  4181  4184    1
  3139  4185  4186    1
  3140  4185  4187    1
  3141  4185  4188    1
  3142  4189  4190    1
  3143  4189  4191    1
  3144  4189  4192    1
  3145  4193  4194    1
  3146  4193  4195    1
  3147  4193  4196    1
  3148  4197  4198    1
  3149  4197  4199    1
  3150  4197  4200    1
  3151  4201  4202    1
  3152  4201  4203    1
  3153  4201  4204    1
  3154  4205  4206    1
  3155  4205  4207    1
  3156  4205  4208    1
  3157  4209  4210    1
  3158  4209  4211    1
  3159  4209  4212    1
  3160  4213  4214    1
  3161  4213  4215    1
  3162  4213  4216    1
  3163  4217  4218    1
  3164  4217  4219    1
  3165  4217  4220    1
  3166  4221  4222    1
  3167  4221  4223    1
  3168  4221  4224    1
  3169  4225  4226    1
  3170  4225  4227    1
  3171  4225  4228    1
  3172  4229  4230    1
  3173  4229  4231    1
  3174  4229  4232    1
  3175  4233  4234    1
  3176  4233  4235    1
  3177  4233  4236    1
  3178  4237  4238    1
  3179  4237  4239    1
  3180  4237  4240    1
  3181  4241  4242    1
  3182  4241  4243    1
  3183  4241  4244    1
  3184  4245  4246    1
  3185  4245  4247    1
  3186  4245  4248    1
  3187  4249  4250    1
  3188  4249  4251    1
  3189  4249  4252    1
  3190  4253  4254    1
  3191  4253  4255    1
  3192  4253  4256    1
  3193  4257  4258    1
  3194  4257  4259    1
  3195  4257  4260    1
  3196  4261  4262    1
  3197  4261  4263    1
  3198  4261  4264    1
  3199  4265  4266    1
  3200  4265  4267    1
  3201  4265  4268    1
  3202  4269  4270    1
  3203  4269  4271    1
  3204  4269  4272    1
  3205  4273  4274    1
  3206  4273  4275    1
  3207  4273  4276    1
  3208  4277  4278    1
  3209  4277  4279    1
  3210  4277  4280    1
  3211  4281  4282    1
  3212  4281  4283    1
  3213  4281  4284    1
  3214  4285  4286    1
  3215  4285  4287    1
  3216  4285  4288    1
  3217  4289  4290    1
  3218  4289  4291    1
  3219  4289  4292    1
  3220  4293  4294    1
  3221  4293  4295    1
  3222  4293  4296    1
  3223  4297  4298    1
  3224  4297  4299    1
  3225  4297  4300    1
  3226  4301  4302    1
  3227  4301  4303    1
  3228  4301  4304    1
  3229  4305  4306    1
  3230  4305  4307    1
  3231  4305  4308    1
  3232  4309  4310    1
  3233  4309  4311    1
  3234  4309  4312    1
  3235  4313  4314    1
  3236  4313  4315    1
  3237  4313  4316    1
  3238  4317  4318    1
  3239  4317  4319    1
  3240  4317  4320    1
  3241  4321  4322    1
  3242  4321  4323    1
  3243  4321  4324    1
  3244  4325  4326    1
  3245  4325  4327    1
  3246  4325  4328    1
  3247  4329  4330    1
  3248  4329  4331    1
  3249  4329  4332    1
  3250  4333  4334    1
  3251  4333  4335    1
  3252  4333  4336    1
  3253  4337  4338    1
  3254  4337  4339    1
  3255  4337  4340    1
  3256  4341  4342    1
  3257  4341  4343    1
  3258  4341  4344    1
  3259  4345  4346    1
  3260  4345  4347    1
  3261  4345  4348    1
  3262  4349  4350    1
  3263  4349  4351    1
  3264  4349  4352    1
  3265  4353  4354    1
  3266  4353  4355    1
  3267  4353  4356    1
  3268  4357  4358    1
  3269  4357  4359    1
  3270  4357  4360    1
  3271  4361  4362    1
  3272  4361  4363    1
  3273  4361  4364    1
  3274  4365  4366    1
  3275  4365  4367    1
  3276  4365  4368    1
  3277  4369  4370    1
  3278  4369  4371    1
  3279  4369  4372    1
  3280  4373  4374    1
  3281  4373  4375    1
  3282  4373  4376    1
  3283  4377  4378    1
  3284  4377  4379    1
  3285  4377  4380    1
  3286  4381  4382    1
  3287  4381  4383    1
  3288  4381  4384    1
  3289  4385  4386    1
  3290  4385  4387    1
  3291  4385  4388    1
  3292  4389  4390    1
  3293  4389  4391    1
  3294  4389  4392    1
  3295  4393  4394    1
  3296  4393  4395    1
  3297  4393  4396    1
  3298  4397  4398    1
  3299  4397  4399    1
  3300  4397  4400    1
  3301  4401  4402    1
  3302  4401  4403    1
  3303  4401  4404    1
  3304  4405  4406    1
  3305  4405  4407    1
  3306  4405  4408    1
  3307  4409  4410    1
  3308  4409  4411    1
  3309  4409  4412    1
  3310  4413  4414    1
  3311  4413  4415    1
  3312  4413  4416    1
  3313  4417  4418    1
  3314  4417  4419    1
  3315  4417  4420    1
  3316  4421  4422    1
  3317  4421  4423    1
  3318  4421  4424    1
  3319  4425  4426    1
  3320  4425  4427    1
  3321  4425  4428    1
  3322  4429  4430    1
  3323  4429  4431    1
  3324  4429  4432    1
  3325  4433  4434    1
  3326  4433  4435    1
  3327  4433  4436    1
  3328  4437  4438    1
  3329  4437  4439    1
  3330  4437  4440    1
  3331  4441  4442    1
  3332  4441  4443    1
  3333  4441  4444    1
  3334  4445  4446    1
  3335  4445  4447    1
  3336  4445  4448    1
  3337  4449  4450    1
  3338  4449  4451    1
  3339  4449  4452    1
  3340  4453  4454    1
  3341  4453  4455    1
  3342  4453  4456    1
  3343  4457  4458    1
  3344  4457  4459    1
  3345  4457  4460    1
  3346  4461  4462    1
  3347  4461  4463    1
  3348  4461  4464    1
  3349  4465  4466    1
  3350  4465  4467    1
  3351  4465  4468    1
  3352  4469  4470    1
  3353  4469  4471    1
  3354  4469  4472    1
  3355  4473  4474    1
  3356  4473  4475    1
  3357  4473  4476    1
  3358  4477  4478    1
  3359  4477  4479    1
  3360  4477  4480    1
  3361  4481  4482    1
  3362  4481  4483    1
  3363  4481  4484    1
  3364  4485  4486    1
  3365  4485  4487    1
  3366  4485  4488    1
  3367  4489  4490    1
  3368  4489  4491    1
  3369  4489  4492    1
  3370  4493  4494    1
  3371  4493  4495    1
  3372  4493  4496    1
  3373  4497  4498    1
  3374  4497  4499    1
  3375  4497  4500    1
  3376  4501  4502    1
  3377  4501  4503    1
  3378  4501  4504    1
  3379  4505  4506    1
  3380  4505  4507    1
  3381  4505  4508    1
  3382  4509  4510    1
  3383  4509  4511    1
  3384  4509  4512    1
  3385  4513  4514    1
  3386  4513  4515    1
  3387  4513  4516    1
  3388  4517  4518    1
  3389  4517  4519    1
  3390  4517  4520    1
  3391  4521  4522    1
  3392  4521  4523    1
  3393  4521  4524    1
  3394  4525  4526    1
  3395  4525  4527    1
  3396  4525  4528    1
  3397  4529  4530    1
  3398  4529  4531    1
  3399  4529  4532    1
  3400  4533  4534    1
  3401  4533  4535    1
  3402  4533  4536    1
  3403  4537  4538    1
  3404  4537  4539    1
  3405  4537  4540    1
  3406  4541  4542    1
  3407  4541  4543    1
  3408  4541  4544    1
  3409  4545  4546    1
  3410  4545  4547    1
  3411  4545  4548    1
  3412  4549  4550    1
  3413  4549  4551    1
  3414  4549  4552    1
  3415  4553  4554    1
  3416  4553  4555    1
  3417  4553  4556    1
  3418  4557  4558    1
  3419  4557  4559    1
  3420  4557  4560    1
  3421  4561  4562    1
  3422  4561  4563    1
  3423  4561  4564    1
  3424  4565  4566    1
  3425  4565  4567    1
  3426  4565  4568    1
  3427  4569  4570    1
  3428  4569  4571    1
  3429  4569  4572    1
  3430  4573  4574    1
  3431  4573  4575    1
  3432  4573  4576    1
  3433  4577  4578    1
  3434  4577  4579    1
  3435  4577  4580    1
  3436  4581  4582    1
  3437  4581  4583    1
  3438  4581  4584    1
  3439  4585  4586    1
  3440  4585  4587    1
  3441  4585  4588    1
  3442  4589  4590    1
  3443  4589  4591    1
  3444  4589  4592    1
  3445  4593  4594    1
  3446  4593  4595    1
  3447  4593  4596    1
  3448  4597  4598    1
  3449  4597  4599    1
  3450  4597  4600    1
  3451  4601  4602    1
  3452  4601  4603    1
  3453  4601  4604    1
  3454  4605  4606    1
  3455  4605  4607    1
  3456  4605  4608    1
  3457  4609  4610    1
  3458  4609  4611    1
  3459  4609  4612    1
  3460  4613  4614    1
  3461  4613  4615    1
  3462  4613  4616    1
  3463  4617  4618    1
  3464  4617  4619    1
  3465  4617  4620    1
  3466  4621  4622    1
  3467  4621  4623    1
  3468  4621  4624    1
  3469  4625  4626    1
  3470  4625  4627    1
  3471  4625  4628    1
  3472  4629  4630    1
  3473  4629  4631    1
  3474  4629  4632    1
  3475  4633  4634    1
  3476  4633  4635    1
  3477  4633  4636    1
  3478  4637  4638    1
  3479  4637  4639    1
  3480  4637  4640    1
  3481  4641  4642    1
  3482  4641  4643    1
  3483  4641  4644    1
  3484  4645  4646    1
  3485  4645  4647    1
  3486  4645  4648    1
  3487  4649  4650    1
  3488  4649  4651    1
  3489  4649  4652    1
  3490  4653  4654    1
  3491  4653  4655    1
  3492  4653  4656    1
  3493  4657  4658    1
  3494  4657  4659    1
  3495  4657  4660    1
  3496  4661  4662    1
  3497  4661  4663    1
  3498  4661  4664    1
  3499  4665  4666    1
  3500  4665  4667    1
  3501  4665  4668    1
  3502  4669  4670    1
  3503  4669  4671    1
  3504  4669  4672    1
  3505  4673  4674    1
  3506  4673  4675    1
  3507  4673  4676    1
  3508  4677  4678    1
  3509  4677  4679    1
  3510  4677  4680    1
  3511  4681  4682    1
  3512  4681  4683    1
  3513  4681  4684    1
  3514  4685  4686    1
  3515  4685  4687    1
  3516  4685  4688    1
  3517  4689  4690    1
  3518  4689  4691    1
  3519  4689  4692    1
  3520  4693  4694    1
  3521  4693  4695    1
  3522  4693  4696    1
  3523  4697  4698    1
  3524  4697  4699    1
  3525  4697  4700    1
  3526  4701  4702    1
  3527  4701  4703    1
  3528  4701  4704    1
  3529  4705  4706    1
  3530  4705  4707    1
  3531  4705  4708    1
  3532  4709  4710    1
  3533  4709  4711    1
  3534  4709  4712    1
  3535  4713  4714    1
  3536  4713  4715    1
  3537  4713  4716    1
  3538  4717  4718    1
  3539  4717  4719    1
  3540  4717  4720    1
  3541  4721  4722    1
  3542  4721  4723    1
  3543  4721  4724    1
  3544  4725  4726    1
  3545  4725  4727    1
  3546  4725  4728    1
  3547  4729  4730    1
  3548  4729  4731    1
  3549  4729  4732    1
  3550  4733  4734    1
  3551  4733  4735    1
  3552  4733  4736    1
  3553  4737  4738    1
  3554  4737  4739    1
  3555  4737  4740    1
  3556  4741  4742    1
  3557  4741  4743    1
  3558  4741  4744    1
  3559  4745  4746    1
  3560  4745  4747    1
  3561  4745  4748    1
  3562  4749  4750    1
  3563  4749  4751    1
  3564  4749  4752    1
  3565  4753  4754    1
  3566  4753  4755    1
  3567  4753  4756    1
  3568  4757  4758    1
  3569  4757  4759    1
  3570  4757  4760    1
  3571  4761  4762    1
  3572  4761  4763    1
  3573  4761  4764    1
  3574  4765  4766    1
  3575  4765  4767    1
  3576  4765  4768    1
  3577  4769  4770    1
  3578  4769  4771    1
  3579  4769  4772    1
  3580  4773  4774    1
  3581  4773  4775    1
  3582  4773  4776    1
  3583  4777  4778    1
  3584  4777  4779    1
  3585  4777  4780    1
  3586  4781  4782    1
  3587  4781  4783    1
  3588  4781  4784    1
  3589  4785  4786    1
  3590  4785  4787    1
  3591  4785  4788    1
  3592  4789  4790    1
  3593  4789  4791    1
  3594  4789  4792    1
  3595  4793  4794    1
  3596  4793  4795    1
  3597  4793  4796    1
  3598  4797  4798    1
  3599  4797  4799    1
  3600  4797  4800    1
  3601  4801  4802    1
  3602  4801  4803    1
  3603  4801  4804    1
  3604  4805  4806    1
  3605  4805  4807    1
  3606  4805  4808    1
  3607  4809  4810    1
  3608  4809  4811    1
  3609  4809  4812    1
  3610  4813  4814    1
  3611  4813  4815    1
  3612  4813  4816    1
  3613  4817  4818    1
  3614  4817  4819    1
  3615  4817  4820    1
  3616  4821  4822    1
  3617  4821  4823    1
  3618  4821  4824    1
  3619  4825  4826    1
  3620  4825  4827    1
  3621  4825  4828    1
  3622  4829  4830    1
  3623  4829  4831    1
  3624  4829  4832    1
  3625  4833  4834    1
  3626  4833  4835    1
  3627  4833  4836    1
  3628  4837  4838    1
  3629  4837  4839    1
  3630  4837  4840    1
  3631  4841  4842    1
  3632  4841  4843    1
  3633  4841  4844    1
  3634  4845  4846    1
  3635  4845  4847    1
  3636  4845  4848    1
  3637  4849  4850    1
  3638  4849  4851    1
  3639  4849  4852    1
  3640  4853  4854    1
  3641  4853  4855    1
  3642  4853  4856    1
  3643  4857  4858    1
  3644  4857  4859    1
  3645  4857  4860    1
  3646  4861  4862    1
  3647  4861  4863    1
  3648  4861  4864    1
  3649  4865  4866    1
  3650  4865  4867    1
  3651  4865  4868    1
  3652  4869  4870    1
  3653  4869  4871    1
  3654  4869  4872    1
  3655  4873  4874    1
  3656  4873  4875    1
  3657  4873  4876    1
  3658  4877  4878    1
  3659  4877  4879    1
  3660  4877  4880    1
  3661  4881  4882    1
  3662  4881  4883    1
  3663  4881  4884    1
  3664  4885  4886    1
  3665  4885  4887    1
  3666  4885  4888    1
  3667  4889  4890    1
  3668  4889  4891    1
  3669  4889  4892    1
  3670  4893  4894    1
  3671  4893  4895    1
  3672  4893  4896    1
  3673  4897  4898    1
  3674  4897  4899    1
  3675  4897  4900    1
  3676  4901  4902    1
  3677  4901  4903    1
  3678  4901  4904    1
  3679  4905  4906    1
  3680  4905  4907    1
  3681  4905  4908    1
  3682  4909  4910    1
  3683  4909  4911    1
  3684  4909  4912    1
  3685  4913  4914    1
  3686  4913  4915    1
  3687  4913  4916    1
  3688  4917  4918    1
  3689  4917  4919    1
  3690  4917  4920    1
  3691  4921  4922    1
  3692  4921  4923    1
  3693  4921  4924    1
  3694  4925  4926    1
  3695  4925  4927    1
  3696  4925  4928    1
  3697  4929  4930    1
  3698  4929  4931    1
  3699  4929  4932    1
  3700  4933  4934    1
  3701  4933  4935    1
  3702  4933  4936    1
  3703  4937  4938    1
  3704  4937  4939    1
  3705  4937  4940    1
  3706  4941  4942    1
  3707  4941  4943    1
  3708  4941  4944    1
  3709  4945  4946    1
  3710  4945  4947    1
  3711  4945  4948    1
  3712  4949  4950    1
  3713  4949  4951    1
  3714  4949  4952    1
  3715  4953  4954    1
  3716  4953  4955    1
  3717  4953  4956    1
  3718  4957  4958    1
  3719  4957  4959    1
  3720  4957  4960    1
  3721  4961  4962    1
  3722  4961  4963    1
  3723  4961  4964    1
  3724  4965  4966    1
  3725  4965  4967    1
  3726  4965  4968    1
  3727  4969  4970    1
  3728  4969  4971    1
  3729  4969  4972    1
  3730  4973  4974    1
  3731  4973  4975    1
  3732  4973  4976    1
  3733  4977  4978    1
  3734  4977  4979    1
  3735  4977  4980    1
  3736  4981  4982    1
  3737  4981  4983    1
  3738  4981  4984    1
  3739  4985  4986    1
  3740  4985  4987    1
  3741  4985  4988    1
  3742  4989  4990    1
  3743  4989  4991    1
  3744  4989  4992    1
  3745  4993  4994    1
  3746  4993  4995    1
  3747  4993  4996    1
  3748  4997  4998    1
  3749  4997  4999    1
  3750  4997  5000    1
  3751  5001  5002    1
  3752  5001  5003    1
  3753  5001  5004    1
  3754  5005  5006    1
  3755  5005  5007    1
  3756  5005  5008    1
  3757  5009  5010    1
  3758  5009  5011    1
  3759  5009  5012    1
  3760  5013  5014    1
  3761  5013  5015    1
  3762  5013  5016    1
  3763  5017  5018    1
  3764  5017  5019    1
  3765  5017  5020    1
  3766  5021  5022    1
  3767  5021  5023    1
  3768  5021  5024    1
  3769  5025  5026    1
  3770  5025  5027    1
  3771  5025  5028    1
  3772  5029  5030    1
  3773  5029  5031    1
  3774  5029  5032    1
  3775  5033  5034    1
  3776  5033  5035    1
  3777  5033  5036    1
  3778  5037  5038    1
  3779  5037  5039    1
  3780  5037  5040    1
  3781  5041  5042    1
  3782  5041  5043    1
  3783  5041  5044    1
  3784  5045  5046    1
  3785  5045  5047    1
  3786  5045  5048    1
  3787  5049  5050    1
  3788  5049  5051    1
  3789  5049  5052    1
  3790  5053  5054    1
  3791  5053  5055    1
  3792  5053  5056    1
  3793  5057  5058    1
  3794  5057  5059    1
  3795  5057  5060    1
  3796  5061  5062    1
  3797  5061  5063    1
  3798  5061  5064    1
  3799  5065  5066    1
  3800  5065  5067    1
  3801  5065  5068    1
  3802  5069  5070    1
  3803  5069  5071    1
  3804  5069  5072    1
  3805  5073  5074    1
  3806  5073  5075    1
  3807  5073  5076    1
  3808  5077  5078    1
  3809  5077  5079    1
  3810  5077  5080    1
  3811  5081  5082    1
  3812  5081  5083    1
  3813  5081  5084    1
  3814  5085  5086    1
  3815  5085  5087    1
  3816  5085  5088    1
  3817  5089  5090    1
  3818  5089  5091    1
  3819  5089  5092    1
  3820  5093  5094    1
  3821  5093  5095    1
  3822  5093  5096    1
  3823  5097  5098    1
  3824  5097  5099    1
  3825  5097  5100    1
  3826  5101  5102    1
  3827  5101  5103    1
  3828  5101  5104    1
  3829  5105  5106    1
  3830  5105  5107    1
  3831  5105  5108    1
  3832  5109  5110    1
  3833  5109  5111    1
  3834  5109  5112    1
  3835  5113  5114    1
  3836  5113  5115    1
  3837  5113  5116    1
  3838  5117  5118    1
  3839  5117  5119    1
  3840  5117  5120    1
  3841  5121  5122    1
  3842  5121  5123    1
  3843  5121  5124    1
  3844  5125  5126    1
  3845  5125  5127    1
  3846  5125  5128    1
  3847  5129  5130    1
  3848  5129  5131    1
  3849  5129  5132    1
  3850  5133  5134    1
  3851  5133  5135    1
  3852  5133  5136    1
  3853  5137  5138    1
  3854  5137  5139    1
  3855  5137  5140    1
  3856  5141  5142    1
  3857  5141  5143    1
  3858  5141  5144    1
  3859  5145  5146    1
  3860  5145  5147    1
  3861  5145  5148    1
  3862  5149  5150    1
  3863  5149  5151    1
  3864  5149  5152    1
  3865  5153  5154    1
  3866  5153  5155    1
  3867  5153  5156    1
  3868  5157  5158    1
  3869  5157  5159    1
  3870  5157  5160    1
  3871  5161  5162    1
  3872  5161  5163    1
  3873  5161  5164    1
  3874  5165  5166    1
  3875  5165  5167    1
  3876  5165  5168    1
  3877  5169  5170    1
  3878  5169  5171    1
  3879  5169  5172    1
  3880  5173  5174    1
  3881  5173  5175    1
  3882  5173  5176    1
  3883  5177  5178    1
  3884  5177  5179    1
  3885  5177  5180    1
  3886  5181  5182    1
  3887  5181  5183    1
  3888  5181  5184    1
  3889  5185  5186    1
  3890  5185  5187    1
  3891  5185  5188    1
  3892  5189  5190    1
  3893  5189  5191    1
  3894  5189  5192    1
  3895  5193  5194    1
  3896  5193  5195    1
  3897  5193  5196    1
  3898  5197  5198    1
  3899  5197  5199    1
  3900  5197  5200    1
  3901  5201  5202    1
  3902  5201  5203    1
  3903  5201  5204    1
  3904  5205  5206    1
  3905  5205  5207    1
  3906  5205  5208    1
  3907  5209  5210    1
  3908  5209  5211    1
  3909  5209  5212    1
  3910  5213  5214    1
  3911  5213  5215    1
  3912  5213  5216    1
  3913  5217  5218    1
  3914  5217  5219    1
  3915  5217  5220    1
  3916  5221  5222    1
  3917  5221  5223    1
  3918  5221  5224    1
  3919  5225  5226    1
  3920  5225  5227    1
  3921  5225  5228    1
  3922  5229  5230    1
  3923  5229  5231    1
  3924  5229  5232    1
  3925  5233  5234    1
  3926  5233  5235    1
  3927  5233  5236    1
  3928  5237  5238    1
  3929  5237  5239    1
  3930  5237  5240    1
  3931  5241  5242    1
  3932  5241  5243    1
  3933  5241  5244    1
  3934  5245  5246    1
  3935  5245  5247    1
  3936  5245  5248    1
  3937  5249  5250    1
  3938  5249  5251    1
  3939  5249  5252    1
  3940  5253  5254    1
  3941  5253  5255    1
  3942  5253  5256    1
  3943  5257  5258    1
  3944  5257  5259    1
  3945  5257  5260    1
  3946  5261  5262    1
  3947  5261  5263    1
  3948  5261  5264    1
  3949  5265  5266    1
  3950  5265  5267    1
  3951  5265  5268    1
  3952  5269  5270    1
  3953  5269  5271    1
  3954  5269  5272    1
  3955  5273  5274    1
  3956  5273  5275    1
  3957  5273  5276    1
  3958  5277  5278    1
  3959  5277  5279    1
  3960  5277  5280    1
  3961  5281  5282    1
  3962  5281  5283    1
  3963  5281  5284    1
  3964  5285  5286    1
  3965  5285  5287    1
  3966  5285  5288    1
  3967  5289  5290    1
  3968  5289  5291    1
  3969  5289  5292    1
  3970  5293  5294    1
  3971  5293  5295    1
  3972  5293  5296    1
  3973  5297  5298    1
  3974  5297  5299    1
  3975  5297  5300    1
  3976  5301  5302    1
  3977  5301  5303    1
  3978  5301  5304    1
  3979  5305  5306    1
  3980  5305  5307    1
  3981  5305  5308    1
  3982  5309  5310    1
  3983  5309  5311    1
  3984  5309  5312    1
  3985  5313  5314    1
  3986  5313  5315    1
  3987  5313  5316    1
  3988  5317  5318    1
  3989  5317  5319    1
  3990  5317  5320    1
  3991  5321  5322    1
  3992  5321  5323    1
  3993  5321  5324    1
  3994  5325  5326    1
  3995  5325  5327    1
  3996  5325  5328    1
  3997  5329  5330    1
  3998  5329  5331    1
  3999  5329  5332    1
  4000  5333  5334    1
  4001  5333  5335    1
  4002  5333  5336    1
  4003  5337  5338    1
  4004  5337  5339    1
  4005  5337  5340    1
  4006  5341  5342    1
  4007  5341  5343    1
  4008  5341  5344    1
  4009  5345  5346    1
  4010  5345  5347    1
  4011  5345  5348    1
  4012  5349  5350    1
  4013  5349  5351    1
  4014  5349  5352    1
  4015  5353  5354    1
  4016  5353  5355    1
  4017  5353  5356    1
  4018  5357  5358    1
  4019  5357  5359    1
  4020  5357  5360    1
  4021  5361  5362    1
  4022  5361  5363    1
  4023  5361  5364    1
  4024  5365  5366    1
  4025  5365  5367    1
  4026  5365  5368    1
  4027  5369  5370    1
  4028  5369  5371    1
  4029  5369  5372    1
  4030  5373  5374    1
  4031  5373  5375    1
  4032  5373  5376    1
  4033  5377  5378    1
  4034  5377  5379    1
  4035  5377  5380    1
  4036  5381  5382    1
  4037  5381  5383    1
  4038  5381  5384    1
  4039  5385  5386    1
  4040  5385  5387    1
  4041  5385  5388    1
  4042  5389  5390    1
  4043  5389  5391    1
  4044  5389  5392    1
  4045  5393  5394    1
  4046  5393  5395    1
  4047  5393  5396    1
  4048  5397  5398    1
  4049  5397  5399    1
  4050  5397  5400    1
  4051  5401  5402    1
  4052  5401  5403    1
  4053  5401  5404    1
  4054  5405  5406    1
  4055  5405  5407    1
  4056  5405  5408    1
  4057  5409  5410    1
  4058  5409  5411    1
  4059  5409  5412    1
  4060  5413  5414    1
  4061  5413  5415    1
  4062  5413  5416    1
  4063  5417  5418    1
  4064  5417  5419    1
  4065  5417  5420    1
  4066  5421  5422    1
  4067  5421  5423    1
  4068  5421  5424    1
  4069  5425  5426    1
  4070  5425  5427    1
  4071  5425  5428    1
  4072  5429  5430    1
  4073  5429  5431    1
  4074  5429  5432    1
  4075  5433  5434    1
  4076  5433  5435    1
  4077  5433  5436    1
  4078  5437  5438    1
  4079  5437  5439    1
  4080  5437  5440    1
  4081  5441  5442    1
  4082  5441  5443    1
  4083  5441  5444    1
  4084  5445  5446    1
  4085  5445  5447    1
  4086  5445  5448    1
  4087  5449  5450    1
  4088  5449  5451    1
  4089  5449  5452    1
  4090  5453  5454    1
  4091  5453  5455    1
  4092  5453  5456    1
  4093  5457  5458    1
  4094  5457  5459    1
  4095  5457  5460    1
  4096  5461  5462    1
  4097  5461  5463    1
  4098  5461  5464    1
  4099  5465  5466    1
  4100  5465  5467    1
  4101  5465  5468    1
  4102  5469  5470    1
  4103  5469  5471    1
  4104  5469  5472    1
  4105  5473  5474    1
  4106  5473  5475    1
  4107  5473  5476    1
  4108  5477  5478    1
  4109  5477  5479    1
  4110  5477  5480    1
  4111  5481  5482    1
  4112  5481  5483    1
  4113  5481  5484    1
  4114  5485  5486    1
  4115  5485  5487    1
  4116  5485  5488    1
  4117  5489  5490    1
  4118  5489  5491    1
  4119  5489  5492    1
  4120  5493  5494    1
  4121  5493  5495    1
  4122  5493  5496    1
  4123  5497  5498    1
  4124  5497  5499    1
  4125  5497  5500    1
  4126  5501  5502    1
  4127  5501  5503    1
  4128  5501  5504    1
  4129  5505  5506    1
  4130  5505  5507    1
  4131  5505  5508    1
  4132  5509  5510    1
  4133  5509  5511    1
  4134  5509  5512    1
  4135  5513  5514    1
  4136  5513  5515    1
  4137  5513  5516    1
  4138  5517  5518    1
  4139  5517  5519    1
  4140  5517  5520    1
  4141  5521  5522    1
  4142  5521  5523    1
  4143  5521  5524    1
  4144  5525  5526    1
  4145  5525  5527    1
  4146  5525  5528    1
  4147  5529  5530    1
  4148  5529  5531    1
  4149  5529  5532    1
  4150  5533  5534    1
  4151  5533  5535    1
  4152  5533  5536    1
  4153  5537  5538    1
  4154  5537  5539    1
  4155  5537  5540    1
  4156  5541  5542    1
  4157  5541  5543    1
  4158  5541  5544    1
  4159  5545  5546    1
  4160  5545  5547    1
  4161  5545  5548    1
  4162  5549  5550    1
  4163  5549  5551    1
  4164  5549  5552    1
  4165  5553  5554    1
  4166  5553  5555    1
  4167  5553  5556    1
  4168  5557  5558    1
  4169  5557  5559    1
  4170  5557  5560    1
  4171  5561  5562    1
  4172  5561  5563    1
  4173  5561  5564    1
  4174  5565  5566    1
  4175  5565  5567    1
  4176  5565  5568    1
  4177  5569  5570    1
  4178  5569  5571    1
  4179  5569  5572    1
  4180  5573  5574    1
  4181  5573  5575    1
  4182  5573  5576    1
  4183  5577  5578    1
  4184  5577  5579    1
  4185  5577  5580    1
  4186  5581  5582    1
  4187  5581  5583    1
  4188  5581  5584    1
  4189  5585  5586    1
  4190  5585  5587    1
  4191  5585  5588    1
  4192  5589  5590    1
  4193  5589  5591    1
  4194  5589  5592    1
  4195  5593  5594    1
  4196  5593  5595    1
  4197  5593  5596    1
  4198  5597  5598    1
  4199  5597  5599    1
  4200  5597  5600    1
  4201  5601  5602    1
  4202  5601  5603    1
  4203  5601  5604    1
  4204  5605  5606    1
  4205  5605  5607    1
  4206  5605  5608    1
  4207  5609  5610    1
  4208  5609  5611    1
  4209  5609  5612    1
  4210  5613  5614    1
  4211  5613  5615    1
  4212  5613  5616    1
  4213  5617  5618    1
  4214  5617  5619    1
  4215  5617  5620    1
  4216  5621  5622    1
  4217  5621  5623    1
  4218  5621  5624    1
  4219  5625  5626    1
  4220  5625  5627    1
  4221  5625  5628    1
  4222  5629  5630    1
  4223  5629  5631    1
  4224  5629  5632    1
  4225  5633  5634    1
  4226  5633  5635    1
  4227  5633  5636    1
  4228  5637  5638    1
  4229  5637  5639    1
  4230  5637  5640    1
  4231  5641  5642    1
  4232  5641  5643    1
  4233  5641  5644    1
  4234  5645  5646    1
  4235  5645  5647    1
  4236  5645  5648    1
  4237  5649  5650    1
  4238  5649  5651    1
  4239  5649  5652    1
  4240  5653  5654    1
  4241  5653  5655    1
  4242  5653  5656    1
  4243  5657  5658    1
  4244  5657  5659    1
  4245  5657  5660    1
  4246  5661  5662    1
  4247  5661  5663    1
  4248  5661  5664    1
  4249  5665  5666    1
  4250  5665  5667    1
  4251  5665  5668    1
  4252  5669  5670    1
  4253  5669  5671    1
  4254  5669  5672    1
  4255  5673  5674    1
  4256  5673  5675    1
  4257  5673  5676    1
  4258  5677  5678    1
  4259  5677  5679    1
  4260  5677  5680    1
  4261  5681  5682    1
  4262  5681  5683    1
  4263  5681  5684    1
  4264  5685  5686    1
  4265  5685  5687    1
  4266  5685  5688    1
  4267  5689  5690    1
  4268  5689  5691    1
  4269  5689  5692    1
  4270  5693  5694    1
  4271  5693  5695    1
  4272  5693  5696    1
  4273  5697  5698    1
  4274  5697  5699    1
  4275  5697  5700    1
  4276  5701  5702    1
  4277  5701  5703    1
  4278  5701  5704    1
  4279  5705  5706    1
  4280  5705  5707    1
  4281  5705  5708    1
  4282  5709  5710    1
  4283  5709  5711    1
  4284  5709  5712    1
  4285  5713  5714    1
  4286  5713  5715    1
  4287  5713  5716    1
  4288  5717  5718    1
  4289  5717  5719    1
  4290  5717  5720    1
  4291  5721  5722    1
  4292  5721  5723    1
  4293  5721  5724    1
  4294  5725  5726    1
  4295  5725  5727    1
  4296  5725  5728    1
  4297  5729  5730    1
  4298  5729  5731    1
  4299  5729  5732    1
  4300  5733  5734    1
  4301  5733  5735    1
  4302  5733  5736    1
  4303  5737  5738    1
  4304  5737  5739    1
  4305  5737  5740    1
  4306  5741  5742    1
  4307  5741  5743    1
  4308  5741  5744    1
  4309  5745  5746    1
  4310  5745  5747    1
  4311  5745  5748    1
  4312  5749  5750    1
  4313  5749  5751    1
  4314  5749  5752    1
  4315  5753  5754    1
  4316  5753  5755    1
  4317  5753  5756    1
  4318  5757  5758    1
  4319  5757  5759    1
  4320  5757  5760    1
  4321  5761  5762    1
  4322  5761  5763    1
  4323  5761  5764    1
  4324  5765  5766    1
  4325  5765  5767    1
  4326  5765  5768    1
  4327  5769  5770    1
  4328  5769  5771    1
  4329  5769  5772    1
  4330  5773  5774    1
  4331  5773  5775    1
  4332  5773  5776    1
  4333  5777  5778    1
  4334  5777  5779    1
  4335  5777  5780    1
  4336  5781  5782    1
  4337  5781  5783    1
  4338  5781  5784    1
  4339  5785  5786    1
  4340  5785  5787    1
  4341  5785  5788    1
  4342  5789  5790    1
  4343  5789  5791    1
  4344  5789  5792    1
  4345  5793  5794    1
  4346  5793  5795    1
  4347  5793  5796    1
  4348  5797  5798    1
  4349  5797  5799    1
  4350  5797  5800    1
  4351  5801  5802    1
  4352  5801  5803    1
  4353  5801  5804    1
  4354  5805  5806    1
  4355  5805  5807    1
  4356  5805  5808    1
  4357  5809  5810    1
  4358  5809  5811    1
  4359  5809  5812    1
  4360  5813  5814    1
  4361  5813  5815    1
  4362  5813  5816    1
  4363  5817  5818    1
  4364  5817  5819    1
  4365  5817  5820    1
  4366  5821  5822    1
  4367  5821  5823    1
  4368  5821  5824    1
  4369  5825  5826    1
  4370  5825  5827    1
  4371  5825  5828    1
  4372  5829  5830    1
  4373  5829  5831    1
  4374  5829  5832    1
  4375  5833  5834    1
  4376  5833  5835    1
  4377  5833  5836    1
  4378  5837  5838    1
  4379  5837  5839    1
  4380  5837  5840    1
  4381  5841  5842    1
  4382  5841  5843    1
  4383  5841  5844    1
  4384  5845  5846    1
  4385  5845  5847    1
  4386  5845  5848    1
  4387  5849  5850    1
  4388  5849  5851    1
  4389  5849  5852    1
  4390  5853  5854    1
  4391  5853  5855    1
  4392  5853  5856    1
  4393  5857  5858    1
  4394  5857  5859    1
  4395  5857  5860    1
  4396  5861  5862    1
  4397  5861  5863    1
  4398  5861  5864    1
  4399  5865  5866    1
  4400  5865  5867    1
  4401  5865  5868    1
  4402  5869  5870    1
  4403  5869  5871    1
  4404  5869  5872    1
  4405  5873  5874    1
  4406  5873  5875    1
  4407  5873  5876    1
  4408  5877  5878    1
  4409  5877  5879    1
  4410  5877  5880    1
  4411  5881  5882    1
  4412  5881  5883    1
  4413  5881  5884    1
  4414  5885  5886    1
  4415  5885  5887    1
  4416  5885  5888    1
  4417  5889  5890    1
  4418  5889  5891    1
  4419  5889  5892    1
  4420  5893  5894    1
  4421  5893  5895    1
  4422  5893  5896    1
  4423  5897  5898    1
  4424  5897  5899    1
  4425  5897  5900    1
  4426  5901  5902    1
  4427  5901  5903    1
  4428  5901  5904    1
  4429  5905  5906    1
  4430  5905  5907    1
  4431  5905  5908    1
  4432  5909  5910    1
  4433  5909  5911    1
  4434  5909  5912    1
  4435  5913  5914    1
  4436  5913  5915    1
  4437  5913  5916    1
  4438  5917  5918    1
  4439  5917  5919    1
  4440  5917  5920    1
  4441  5921  5922    1
  4442  5921  5923    1
  4443  5921  5924    1
  4444  5925  5926    1
  4445  5925  5927    1
  4446  5925  5928    1
  4447  5929  5930    1
  4448  5929  5931    1
  4449  5929  5932    1
  4450  5933  5934    1
  4451  5933  5935    1
  4452  5933  5936    1
  4453  5937  5938    1
  4454  5937  5939    1
  4455  5937  5940    1
  4456  5941  5942    1
  4457  5941  5943    1
  4458  5941  5944    1
  4459  5945  5946    1
  4460  5945  5947    1
  4461  5945  5948    1
  4462  5949  5950    1
  4463  5949  5951    1
  4464  5949  5952    1
  4465  5953  5954    1
  4466  5953  5955    1
  4467  5953  5956    1
  4468  5957  5958    1
  4469  5957  5959    1
  4470  5957  5960    1
  4471  5961  5962    1
  4472  5961  5963    1
  4473  5961  5964    1
  4474  5965  5966    1
  4475  5965  5967    1
  4476  5965  5968    1
  4477  5969  5970    1
  4478  5969  5971    1
  4479  5969  5972    1
  4480  5973  5974    1
  4481  5973  5975    1
  4482  5973  5976    1
  4483  5977  5978    1
  4484  5977  5979    1
  4485  5977  5980    1
  4486  5981  5982    1
  4487  5981  5983    1
  4488  5981  5984    1
  4489  5985  5986    1
  4490  5985  5987    1
  4491  5985  5988    1
  4492  5989  5990    1
  4493  5989  5991    1
  4494  5989  5992    1
  4495  5993  5994    1
  4496  5993  5995    1
  4497  5993  5996    1
  4498  5997  5998    1
  4499  5997  5999    1
  4500  5997  6000    1
  4501  6001  6002    1
  4502  6001  6003    1
  4503  6001  6004    1
  4504  6005  6006    1
  4505  6005  6007    1
  4506  6005  6008    1
  4507  6009  6010    1
  4508  6009  6011    1
  4509  6009  6012    1
  4510  6013  6014    1
  4511  6013  6015    1
  4512  6013  6016    1
  4513  6017  6018    1
  4514  6017  6019    1
  4515  6017  6020    1
  4516  6021  6022    1
  4517  6021  6023    1
  4518  6021  6024    1
  4519  6025  6026    1
  4520  6025  6027    1
  4521  6025  6028    1
  4522  6029  6030    1
  4523  6029  6031    1
  4524  6029  6032    1
  4525  6033  6034    1
  4526  6033  6035    1
  4527  6033  6036    1
  4528  6037  6038    1
  4529  6037  6039    1
  4530  6037  6040    1
  4531  6041  6042    1
  4532  6041  6043    1
  4533  6041  6044    1
  4534  6045  6046    1
  4535  6045  6047    1
  4536  6045  6048    1
  4537  6049  6050    1
  4538  6049  6051    1
  4539  6049  6052    1
  4540  6053  6054    1
  4541  6053  6055    1
  4542  6053  6056    1
  4543  6057  6058    1
  4544  6057  6059    1
  4545  6057  6060    1
  4546  6061  6062    1
  4547  6061  6063    1
  4548  6061  6064    1
  4549  6065  6066    1
  4550  6065  6067    1
  4551  6065  6068    1
  4552  6069  6070    1
  4553  6069  6071    1
  4554  6069  6072    1
  4555  6073  6074    1
  4556  6073  6075    1
  4557  6073  6076    1
  4558  6077  6078    1
  4559  6077  6079    1
  4560  6077  6080    1
  4561  6081  6082    1
  4562  6081  6083    1
  4563  6081  6084    1
  4564  6085  6086    1
  4565  6085  6087    1
  4566  6085  6088    1
  4567  6089  6090    1
  4568  6089  6091    1
  4569  6089  6092    1
  4570  6093  6094    1
  4571  6093  6095    1
  4572  6093  6096    1
  4573  6097  6098    1
  4574  6097  6099    1
  4575  6097  6100    1
  4576  6101  6102    1
  4577  6101  6103    1
  4578  6101  6104    1
  4579  6105  6106    1
  4580  6105  6107    1
  4581  6105  6108    1
  4582  6109  6110    1
  4583  6109  6111    1
  4584  6109  6112    1
  4585  6113  6114    1
  4586  6113  6115    1
  4587  6113  6116    1
  4588  6117  6118    1
  4589  6117  6119    1
  4590  6117  6120    1
  4591  6121  6122    1
  4592  6121  6123    1
  4593  6121  6124    1
  4594  6125  6126    1
  4595  6125  6127    1
  4596  6125  6128    1
  4597  6129  6130    1
  4598  6129  6131    1
  4599  6129  6132    1
  4600  6133  6134    1
  4601  6133  6135    1
  4602  6133  6136    1
  4603  6137  6138    1
  4604  6137  6139    1
  4605  6137  6140    1
  4606  6141  6142    1
  4607  6141  6143    1
  4608  6141  6144    1
  4609  6145  6146    1
  4610  6145  6147    1
  4611  6145  6148    1
  4612  6149  6150    1
  4613  6149  6151    1
  4614  6149  6152    1
  4615  6153  6154    1
  4616  6153  6155    1
  4617  6153  6156    1
  4618  6157  6158    1
  4619  6157  6159    1
  4620  6157  6160    1
  4621  6161  6162    1
  4622  6161  6163    1
  4623  6161  6164    1
  4624  6165  6166    1
  4625  6165  6167    1
  4626  6165  6168    1
  4627  6169  6170    1
  4628  6169  6171    1
  4629  6169  6172    1
  4630  6173  6174    1
  4631  6173  6175    1
  4632  6173  6176    1
  4633  6177  6178    1
  4634  6177  6179    1
  4635  6177  6180    1
  4636  6181  6182    1
  4637  6181  6183    1
  4638  6181  6184    1
  4639  6185  6186    1
  4640  6185  6187    1
  4641  6185  6188    1
  4642  6189  6190    1
  4643  6189  6191    1
  4644  6189  6192    1
  4645  6193  6194    1
  4646  6193  6195    1
  4647  6193  6196    1
  4648  6197  6198    1
  4649  6197  6199    1
  4650  6197  6200    1
  4651  6201  6202    1
  4652  6201  6203    1
  4653  6201  6204    1
  4654  6205  6206    1
  4655  6205  6207    1
  4656  6205  6208    1
  4657  6209  6210    1
  4658  6209  6211    1
  4659  6209  6212    1
  4660  6213  6214    1
  4661  6213  6215    1
  4662  6213  6216    1
  4663  6217  6218    1
  4664  6217  6219    1
  4665  6217  6220    1
  4666  6221  6222    1
  4667  6221  6223    1
  4668  6221  6224    1
  4669  6225  6226    1
  4670  6225  6227    1
  4671  6225  6228    1
  4672  6229  6230    1
  4673  6229  6231    1
  4674  6229  6232    1
  4675  6233  6234    1
  4676  6233  6235    1
  4677  6233  6236    1
  4678  6237  6238    1
  4679  6237  6239    1
  4680  6237  6240    1
  4681  6241  6242    1
  4682  6241  6243    1
  4683  6241  6244    1
  4684  6245  6246    1
  4685  6245  6247    1
  4686  6245  6248    1
  4687  6249  6250    1
  4688  6249  6251    1
  4689  6249  6252    1
  4690  6253  6254    1
  4691  6253  6255    1
  4692  6253  6256    1
  4693  6257  6258    1
  4694  6257  6259    1
  4695  6257  6260    1
  4696  6261  6262    1
  4697  6261  6263    1
  4698  6261  6264    1
  4699  6265  6266    1
  4700  6265  6267    1
  4701  6265  6268    1
  4702  6269  6270    1
  4703  6269  6271    1
  4704  6269  6272    1
  4705  6273  6274    1
  4706  6273  6275    1
  4707  6273  6276    1
  4708  6277  6278    1
  4709  6277  6279    1
  4710  6277  6280    1
  4711  6281  6282    1
  4712  6281  6283    1
  4713  6281  6284    1
  4714  6285  6286    1
  4715  6285  6287    1
  4716  6285  6288    1
  4717  6289  6290    1
  4718  6289  6291    1
  4719  6289  6292    1
  4720  6293  6294    1
  4721  6293  6295    1
  4722  6293  6296    1
  4723  6297  6298    1
  4724  6297  6299    1
  4725  6297  6300    1
  4726  6301  6302    1
  4727  6301  6303    1
  4728  6301  6304    1
  4729  6305  6306    1
  4730  6305  6307    1
  4731  6305  6308    1
  4732  6309  6310    1
  4733  6309  6311    1
  4734  6309  6312    1
  4735  6313  6314    1
  4736  6313  6315    1
  4737  6313  6316    1
  4738  6317  6318    1
  4739  6317  6319    1
  4740  6317  6320    1
  4741  6321  6322    1
  4742  6321  6323    1
  4743  6321  6324    1
  4744  6325  6326    1
  4745  6325  6327    1
  4746  6325  6328    1
  4747  6329  6330    1
  4748  6329  6331    1
  4749  6329  6332    1
  4750  6333  6334    1
  4751  6333  6335    1
  4752  6333  6336    1
  4753  6337  6338    1
  4754  6337  6339    1
  4755  6337  6340    1
  4756  6341  6342    1
  4757  6341  6343    1
  4758  6341  6344    1
  4759  6345  6346    1
  4760  6345  6347    1
  4761  6345  6348    1
  4762  6349  6350    1
  4763  6349  6351    1
  4764  6349  6352    1
  4765  6353  6354    1
  4766  6353  6355    1
  4767  6353  6356    1
  4768  6357  6358    1
  4769  6357  6359    1
  4770  6357  6360    1
  4771  6361  6362    1
  4772  6361  6363    1
  4773  6361  6364    1
  4774  6365  6366    1
  4775  6365  6367    1
  4776  6365  6368    1
  4777  6369  6370    1
  4778  6369  6371    1
  4779  6369  6372    1
  4780  6373  6374    1
  4781  6373  6375    1
  4782  6373  6376    1
  4783  6377  6378    1
  4784  6377  6379    1
  4785  6377  6380    1
  4786  6381  6382    1
  4787  6381  6383    1
  4788  6381  6384    1
  4789  6385  6386    1
  4790  6385  6387    1
  4791  6385  6388    1
  4792  6389  6390    1
  4793  6389  6391    1
  4794  6389  6392    1
  4795  6393  6394    1
  4796  6393  6395    1
  4797  6393  6396    1
  4798  6397  6398    1
  4799  6397  6399    1
  4800  6397  6400    1
  4801  6401  6402    1
  4802  6401  6403    1
  4803  6401  6404    1
  4804  6405  6406    1
  4805  6405  6407    1
  4806  6405  6408    1
  4807  6409  6410    1
  4808  6409  6411    1
  4809  6409  6412    1
  4810  6413  6414    1
  4811  6413  6415    1
  4812  6413  6416    1
  4813  6417  6418    1
  4814  6417  6419    1
  4815  6417  6420    1
  4816  6421  6422    1
  4817  6421  6423    1
  4818  6421  6424    1
  4819  6425  6426    1
  4820  6425  6427    1
  4821  6425  6428    1
  4822  6429  6430    1
  4823  6429  6431    1
  4824  6429  6432    1
  4825  6433  6434    1
  4826  6433  6435    1
  4827  6433  6436    1
  4828  6437  6438    1
  4829  6437  6439    1
  4830  6437  6440    1
  4831  6441  6442    1
  4832  6441  6443    1
  4833  6441  6444    1
  4834  6445  6446    1
  4835  6445  6447    1
  4836  6445  6448    1
  4837  6449  6450    1
  4838  6449  6451    1
  4839  6449  6452    1
  4840  6453  6454    1
  4841  6453  6455    1
  4842  6453  6456    1
  4843  6457  6458    1
  4844  6457  6459    1
  4845  6457  6460    1
  4846  6461  6462    1
  4847  6461  6463    1
  4848  6461  6464    1
  4849  6465  6466    1
  4850  6465  6467    1
  4851  6465  6468    1
  4852  6469  6470    1
  4853  6469  6471    1
  4854  6469  6472    1
  4855  6473  6474    1
  4856  6473  6475    1
  4857  6473  6476    1
  4858  6477  6478    1
  4859  6477  6479    1
  4860  6477  6480    1
  4861  6481  6482    1
  4862  6481  6483    1
  4863  6481  6484    1
  4864  6485  6486    1
  4865  6485  6487    1
  4866  6485  6488    1
  4867  6489  6490    1
  4868  6489  6491    1
  4869  6489  6492    1
  4870  6493  6494    1
  4871  6493  6495    1
  4872  6493  6496    1
  4873  6497  6498    1
  4874  6497  6499    1
  4875  6497  6500    1
  4876  6501  6502    1
  4877  6501  6503    1
  4878  6501  6504    1
  4879  6505  6506    1
  4880  6505  6507    1
  4881  6505  6508    1
  4882  6509  6510    1
  4883  6509  6511    1
  4884  6509  6512    1
  4885  6513  6514    1
  4886  6513  6515    1
  4887  6513  6516    1
  4888  6517  6518    1
  4889  6517  6519    1
  4890  6517  6520    1
  4891  6521  6522    1
  4892  6521  6523    1
  4893  6521  6524    1
  4894  6525  6526    1
  4895  6525  6527    1
  4896  6525  6528    1
  4897  6529  6530    1
  4898  6529  6531    1
  4899  6529  6532    1
  4900  6533  6534    1
  4901  6533  6535    1
  4902  6533  6536    1
  4903  6537  6538    1
  4904  6537  6539    1
  4905  6537  6540    1
  4906  6541  6542    1
  4907  6541  6543    1
  4908  6541  6544    1
  4909  6545  6546    1
  4910  6545  6547    1
  4911  6545  6548    1
  4912  6549  6550    1
  4913  6549  6551    1
  4914  6549  6552    1
  4915  6553  6554    1
  4916  6553  6555    1
  4917  6553  6556    1
  4918  6557  6558    1
  4919  6557  6559    1
  4920  6557  6560    1
  4921  6561  6562    1
  4922  6561  6563    1
  4923  6561  6564    1
  4924  6565  6566    1
  4925  6565  6567    1
  4926  6565  6568    1
  4927  6569  6570    1
  4928  6569  6571    1
  4929  6569  6572    1
  4930  6573  6574    1
  4931  6573  6575    1
  4932  6573  6576    1
  4933  6577  6578    1
  4934  6577  6579    1
  4935  6577  6580    1
  4936  6581  6582    1
  4937  6581  6583    1
  4938  6581  6584    1
  4939  6585  6586    1
  4940  6585  6587    1
  4941  6585  6588    1
  4942  6589  6590    1
  4943  6589  6591    1
  4944  6589  6592    1
  4945  6593  6594    1
  4946  6593  6595    1
  4947  6593  6596    1
  4948  6597  6598    1
  4949  6597  6599    1
  4950  6597  6600    1
  4951  6601  6602    1
  4952  6601  6603    1
  4953  6601  6604    1
  4954  6605  6606    1
  4955  6605  6607    1
  4956  6605  6608    1
  4957  6609  6610    1
  4958  6609  6611    1
  4959  6609  6612    1
  4960  6613  6614    1
  4961  6613  6615    1
  4962  6613  6616    1
  4963  6617  6618    1
  4964  6617  6619    1
  4965  6617  6620    1
  4966  6621  6622    1
  4967  6621  6623    1
  4968  6621  6624    1
  4969  6625  6626    1
  4970  6625  6627    1
  4971  6625  6628    1
  4972  6629  6630    1
  4973  6629  6631    1
  4974  6629  6632    1
  4975  6633  6634    1
  4976  6633  6635    1
  4977  6633  6636    1
  4978  6637  6638    1
  4979  6637  6639    1
  4980  6637  6640    1
  4981  6641  6642    1
  4982  6641  6643    1
  4983  6641  6644    1
  4984  6645  6646    1
  4985  6645  6647    1
  4986  6645  6648    1
  4987  6649  6650    1
  4988  6649  6651    1
  4989  6649  6652    1
  4990  6653  6654    1
  4991  6653  6655    1
  4992  6653  6656    1
  4993  6657  6658    1
  4994  6657  6659    1
  4995  6657  6660    1
  4996  6661  6662    1
  4997  6661  6663    1
  4998  6661  6664    1
  4999  6665  6666    1
  5000  6665  6667    1
  5001  6665  6668    1
  5002  6669  6670    1
  5003  6669  6671    1
  5004  6669  6672    1
  5005  6673  6674    1
  5006  6673  6675    1
  5007  6673  6676    1
  5008  6677  6678    1
  5009  6677  6679    1
  5010  6677  6680    1
  5011  6681  6682    1
  5012  6681  6683    1
  5013  6681  6684    1
  5014  6685  6686    1
  5015  6685  6687    1
  5016  6685  6688    1
  5017  6689  6690    1
  5018  6689  6691    1
  5019  6689  6692    1
  5020  6693  6694    1
  5021  6693  6695    1
  5022  6693  6696    1
  5023  6697  6698    1
  5024  6697  6699    1
  5025  6697  6700    1
  5026  6701  6702    1
  5027  6701  6703    1
  5028  6701  6704    1
  5029  6705  6706    1
  5030  6705  6707    1
  5031  6705  6708    1
  5032  6709  6710    1
  5033  6709  6711    1
  5034  6709  6712    1
  5035  6713  6714    1
  5036  6713  6715    1
  5037  6713  6716    1
  5038  6717  6718    1
  5039  6717  6719    1
  5040  6717  6720    1
  5041  6721  6722    1
  5042  6721  6723    1
  5043  6721  6724    1
  5044  6725  6726    1
  5045  6725  6727    1
  5046  6725  6728    1
  5047  6729  6730    1
  5048  6729  6731    1
  5049  6729  6732    1
  5050  6733  6734    1
  5051  6733  6735    1
  5052  6733  6736    1
  5053  6737  6738    1
  5054  6737  6739    1
  5055  6737  6740    1
  5056  6741  6742    1
  5057  6741  6743    1
  5058  6741  6744    1
  5059  6745  6746    1
  5060  6745  6747    1
  5061  6745  6748    1
  5062  6749  6750    1
  5063  6749  6751    1
  5064  6749  6752    1
  5065  6753  6754    1
  5066  6753  6755    1
  5067  6753  6756    1
  5068  6757  6758    1
  5069  6757  6759    1
  5070  6757  6760    1
  5071  6761  6762    1
  5072  6761  6763    1
  5073  6761  6764    1
  5074  6765  6766    1
  5075  6765  6767    1
  5076  6765  6768    1
  5077  6769  6770    1
  5078  6769  6771    1
  5079  6769  6772    1
  5080  6773  6774    1
  5081  6773  6775    1
  5082  6773  6776    1
  5083  6777  6778    1
  5084  6777  6779    1
  5085  6777  6780    1
  5086  6781  6782    1
  5087  6781  6783    1
  5088  6781  6784    1
  5089  6785  6786    1
  5090  6785  6787    1
  5091  6785  6788    1
  5092  6789  6790    1
  5093  6789  6791    1
  5094  6789  6792    1
  5095  6793  6794    1
  5096  6793  6795    1
  5097  6793  6796    1
  5098  6797  6798    1
  5099  6797  6799    1
  5100  6797  6800    1
  5101  6801  6802    1
  5102  6801  6803    1
  5103  6801  6804    1
  5104  6805  6806    1
  5105  6805  6807    1
  5106  6805  6808    1
  5107  6809  6810    1
  5108  6809  6811    1
  5109  6809  6812    1
  5110  6813  6814    1
  5111  6813  6815    1
  5112  6813  6816    1
  5113  6817  6818    1
  5114  6817  6819    1
  5115  6817  6820    1
  5116  6821  6822    1
  5117  6821  6823    1
  5118  6821  6824    1
  5119  6825  6826    1
  5120  6825  6827    1
  5121  6825  6828    1
  5122  6829  6830    1
  5123  6829  6831    1
  5124  6829  6832    1
  5125  6833  6834    1
  5126  6833  6835    1
  5127  6833  6836    1
  5128  6837  6838    1
  5129  6837  6839    1
  5130  6837  6840    1
  5131  6841  6842    1
  5132  6841  6843    1
  5133  6841  6844    1
  5134  6845  6846    1
  5135  6845  6847    1
  5136  6845  6848    1
  5137  6849  6850    1
  5138  6849  6851    1
  5139  6849  6852    1
  5140  6853  6854    1
  5141  6853  6855    1
  5142  6853  6856    1
  5143  6857  6858    1
  5144  6857  6859    1
  5145  6857  6860    1
  5146  6861  6862    1
  5147  6861  6863    1
  5148  6861  6864    1
  5149  6865  6866    1
  5150  6865  6867    1
  5151  6865  6868    1
  5152  6869  6870    1
  5153  6869  6871    1
  5154  6869  6872    1
  5155  6873  6874    1
  5156  6873  6875    1
  5157  6873  6876    1
  5158  6877  6878    1
  5159  6877  6879    1
  5160  6877  6880    1
  5161  6881  6882    1
  5162  6881  6883    1
  5163  6881  6884    1
  5164  6885  6886    1
  5165  6885  6887    1
  5166  6885  6888    1
  5167  6889  6890    1
  5168  6889  6891    1
  5169  6889  6892    1
  5170  6893  6894    1
  5171  6893  6895    1
  5172  6893  6896    1
  5173  6897  6898    1
  5174  6897  6899    1
  5175  6897  6900    1
  5176  6901  6902    1
  5177  6901  6903    1
  5178  6901  6904    1
  5179  6905  6906    1
  5180  6905  6907    1
  5181  6905  6908    1
  5182  6909  6910    1
  5183  6909  6911    1
  5184  6909  6912    1
  5185  6913  6914    1
  5186  6913  6915    1
  5187  6913  6916    1
  5188  6917  6918    1
  5189  6917  6919    1
  5190  6917  6920    1
  5191  6921  6922    1
  5192  6921  6923    1
  5193  6921  6924    1
  5194  6925  6926    1
  5195  6925  6927    1
  5196  6925  6928    1
  5197  6929  6930    1
  5198  6929  6931    1
  5199  6929  6932    1
  5200  6933  6934    1
  5201  6933  6935    1
  5202  6933  6936    1
  5203  6937  6938    1
  5204  6937  6939    1
  5205  6937  6940    1
  5206  6941  6942    1
  5207  6941  6943    1
  5208  6941  6944    1
  5209  6945  6946    1
  5210  6945  6947    1
  5211  6945  6948    1
  5212  6949  6950    1
  5213  6949  6951    1
  5214  6949  6952    1
  5215  6953  6954    1
  5216  6953  6955    1
  5217  6953  6956    1
  5218  6957  6958    1
  5219  6957  6959    1
  5220  6957  6960    1
  5221  6961  6962    1
  5222  6961  6963    1
  5223  6961  6964    1
  5224  6965  6966    1
  5225  6965  6967    1
  5226  6965  6968    1
  5227  6969  6970    1
  5228  6969  6971    1
  5229  6969  6972    1
  5230  6973  6974    1
  5231  6973  6975    1
  5232  6973  6976    1
  5233  6977  6978    1
  5234  6977  6979    1
  5235  6977  6980    1
  5236  6981  6982    1
  5237  6981  6983    1
  5238  6981  6984    1
  5239  6985  6986    1
  5240  6985  6987    1
  5241  6985  6988    1
  5242  6989  6990    1
  5243  6989  6991    1
  5244  6989  6992    1
  5245  6993  6994    1
  5246  6993  6995    1
  5247  6993  6996    1
  5248  6997  6998    1
  5249  6997  6999    1
  5250  6997  7000    1
  5251  7001  7002    1
  5252  7001  7003    1
  5253  7001  7004    1
  5254  7005  7006    1
  5255  7005  7007    1
  5256  7005  7008    1
  5257  7009  7010    1
  5258  7009  7011    1
  5259  7009  7012    1
  5260  7013  7014    1
  5261  7013  7015    1
  5262  7013  7016    1
  5263  7017  7018    1
  5264  7017  7019    1
  5265  7017  7020    1
  5266  7021  7022    1
  5267  7021  7023    1
  5268  7021  7024    1
  5269  7025  7026    1
  5270  7025  7027    1
  5271  7025  7028    1
  5272  7029  7030    1
  5273  7029  7031    1
  5274  7029  7032    1
  5275  7033  7034    1
  5276  7033  7035    1
  5277  7033  7036    1
  5278  7037  7038    1
  5279  7037  7039    1
  5280  7037  7040    1
  5281  7041  7042    1
  5282  7041  7043    1
  5283  7041  7044    1
  5284  7045  7046    1
  5285  7045  7047    1
  5286  7045  7048    1
  5287  7049  7050    1
  5288  7049  7051    1
  5289  7049  7052    1
  5290  7053  7054    1
  5291  7053  7055    1
  5292  7053  7056    1
  5293  7057  7058    1
  5294  7057  7059    1
  5295  7057  7060    1
  5296  7061  7062    1
  5297  7061  7063    1
  5298  7061  7064    1
  5299  7065  7066    1
  5300  7065  7067    1
  5301  7065  7068    1
  5302  7069  7070    1
  5303  7069  7071    1
  5304  7069  7072    1
  5305  7073  7074    1
  5306  7073  7075    1
  5307  7073  7076    1
  5308  7077  7078    1
  5309  7077  7079    1
  5310  7077  7080    1
  5311  7081  7082    1
  5312  7081  7083    1
  5313  7081  7084    1
  5314  7085  7086    1
  5315  7085  7087    1
  5316  7085  7088    1
  5317  7089  7090    1
  5318  7089  7091    1
  5319  7089  7092    1
  5320  7093  7094    1
  5321  7093  7095    1
  5322  7093  7096    1
  5323  7097  7098    1
  5324  7097  7099    1
  5325  7097  7100    1
  5326  7101  7102    1
  5327  7101  7103    1
  5328  7101  7104    1
  5329  7105  7106    1
  5330  7105  7107    1
  5331  7105  7108    1
  5332  7109  7110    1
  5333  7109  7111    1
  5334  7109  7112    1
  5335  7113  7114    1
  5336  7113  7115    1
  5337  7113  7116    1
  5338  7117  7118    1
  5339  7117  7119    1
  5340  7117  7120    1
  5341  7121  7122    1
  5342  7121  7123    1
  5343  7121  7124    1
  5344  7125  7126    1
  5345  7125  7127    1
  5346  7125  7128    1
  5347  7129  7130    1
  5348  7129  7131    1
  5349  7129  7132    1
  5350  7133  7134    1
  5351  7133  7135    1
  5352  7133  7136    1
  5353  7137  7138    1
  5354  7137  7139    1
  5355  7137  7140    1
  5356  7141  7142    1
  5357  7141  7143    1
  5358  7141  7144    1
  5359  7145  7146    1
  5360  7145  7147    1
  5361  7145  7148    1
  5362  7149  7150    1
  5363  7149  7151    1
  5364  7149  7152    1
  5365  7153  7154    1
  5366  7153  7155    1
  5367  7153  7156    1
  5368  7157  7158    1
  5369  7157  7159    1
  5370  7157  7160    1
  5371  7161  7162    1
  5372  7161  7163    1
  5373  7161  7164    1
  5374  7165  7166    1
  5375  7165  7167    1
  5376  7165  7168    1
  5377  7169  7170    1
  5378  7169  7171    1
  5379  7169  7172    1
  5380  7173  7174    1
  5381  7173  7175    1
  5382  7173  7176    1
  5383  7177  7178    1
  5384  7177  7179    1
  5385  7177  7180    1
  5386  7181  7182    1
  5387  7181  7183    1
  5388  7181  7184    1
  5389  7185  7186    1
  5390  7185  7187    1
  5391  7185  7188    1
  5392  7189  7190    1
  5393  7189  7191    1
  5394  7189  7192    1
  5395  7193  7194    1
  5396  7193  7195    1
  5397  7193  7196    1
  5398  7197  7198    1
  5399  7197  7199    1
  5400  7197  7200    1
  5401  7201  7202    1
  5402  7201  7203    1
  5403  7201  7204    1
  5404  7205  7206    1
  5405  7205  7207    1
  5406  7205  7208    1
  5407  7209  7210    1
  5408  7209  7211    1
  5409  7209  7212    1
  5410  7213  7214    1
  5411  7213  7215    1
  5412  7213  7216    1
  5413  7217  7218    1
  5414  7217  7219    1
  5415  7217  7220    1
  5416  7221  7222    1
  5417  7221  7223    1
  5418  7221  7224    1
  5419  7225  7226    1
  5420  7225  7227    1
  5421  7225  7228    1
  5422  7229  7230    1
  5423  7229  7231    1
  5424  7229  7232    1
  5425  7233  7234    1
  5426  7233  7235    1
  5427  7233  7236    1
  5428  7237  7238    1
  5429  7237  7239    1
  5430  7237  7240    1
  5431  7241  7242    1
  5432  7241  7243    1
  5433  7241  7244    1
  5434  7245  7246    1
  5435  7245  7247    1
  5436  7245  7248    1
  5437  7249  7250    1
  5438  7249  7251    1
  5439  7249  7252    1
  5440  7253  7254    1
  5441  7253  7255    1
  5442  7253  7256    1
  5443  7257  7258    1
  5444  7257  7259    1
  5445  7257  7260    1
  5446  7261  7262    1
  5447  7261  7263    1
  5448  7261  7264    1
  5449  7265  7266    1
  5450  7265  7267    1
  5451  7265  7268    1
  5452  7269  7270    1
  5453  7269  7271    1
  5454  7269  7272    1
  5455  7273  7274    1
  5456  7273  7275    1
  5457  7273  7276    1
  5458  7277  7278    1
  5459  7277  7279    1
  5460  7277  7280    1
  5461  7281  7282    1
  5462  7281  7283    1
  5463  7281  7284    1
  5464  7285  7286    1
  5465  7285  7287    1
  5466  7285  7288    1
  5467  7289  7290    1
  5468  7289  7291    1
  5469  7289  7292    1
  5470  7293  7294    1
  5471  7293  7295    1
  5472  7293  7296    1
  5473  7297  7298    1
  5474  7297  7299    1
  5475  7297  7300    1
  5476  7301  7302    1
  5477  7301  7303    1
  5478  7301  7304    1
  5479  7305  7306    1
  5480  7305  7307    1
  5481  7305  7308    1
  5482  7309  7310    1
  5483  7309  7311    1
  5484  7309  7312    1
  5485  7313  7314    1
  5486  7313  7315    1
  5487  7313  7316    1
  5488  7317  7318    1
  5489  7317  7319    1
  5490  7317  7320    1
  5491  7321  7322    1
  5492  7321  7323    1
  5493  7321  7324    1
  5494  7325  7326    1
  5495  7325  7327    1
  5496  7325  7328    1
  5497  7329  7330    1
  5498  7329  7331    1
  5499  7329  7332    1
  5500  7333  7334    1
  5501  7333  7335    1
  5502  7333  7336    1
  5503  7337  7338    1
  5504  7337  7339    1
  5505  7337  7340    1
  5506  7341  7342    1
  5507  7341  7343    1
  5508  7341  7344    1
  5509  7345  7346    1
  5510  7345  7347    1
  5511  7345  7348    1
  5512  7349  7350    1
  5513  7349  7351    1
  5514  7349  7352    1
  5515  7353  7354    1
  5516  7353  7355    1
  5517  7353  7356    1
  5518  7357  7358    1
  5519  7357  7359    1
  5520  7357  7360    1
  5521  7361  7362    1
  5522  7361  7363    1
  5523  7361  7364    1
  5524  7365  7366    1
  5525  7365  7367    1
  5526  7365  7368    1
  5527  7369  7370    1
  5528  7369  7371    1
  5529  7369  7372    1
  5530  7373  7374    1
  5531  7373  7375    1
  5532  7373  7376    1
  5533  7377  7378    1
  5534  7377  7379    1
  5535  7377  7380    1
  5536  7381  7382    1
  5537  7381  7383    1
  5538  7381  7384    1
  5539  7385  7386    1
  5540  7385  7387    1
  5541  7385  7388    1
  5542  7389  7390    1
  5543  7389  7391    1
  5544  7389  7392    1
  5545  7393  7394    1
  5546  7393  7395    1
  5547  7393  7396    1
  5548  7397  7398    1
  5549  7397  7399    1
  5550  7397  7400    1
  5551  7401  7402    1
  5552  7401  7403    1
  5553  7401  7404    1
  5554  7405  7406    1
  5555  7405  7407    1
  5556  7405  7408    1
  5557  7409  7410    1
  5558  7409  7411    1
  5559  7409  7412    1
  5560  7413  7414    1
  5561  7413  7415    1
  5562  7413  7416    1
  5563  7417  7418    1
  5564  7417  7419    1
  5565  7417  7420    1
