@<TRIPOS>MOLECULE
*****
 1048 786 0 0 0
SMALL
GASTEIGER

@<TRIPOS>ATOM
      1 N          -0.9368    0.2073   -0.1339 N.3     1  UNL1       -0.3437
      2 H          -1.3785    0.4979    0.7372 H       1  UNL1        0.1146
      3 H          -0.2112    0.8969   -0.3246 H       1  UNL1        0.1146
      4 H          -0.4493   -0.6628    0.0750 H       1  UNL1        0.1146
      5 N          -0.9739    0.2590    2.0788 N.3     2  UNL2       -0.3437
      6 H          -0.9155   -0.3259    2.9111 H       2  UNL2        0.1146
      7 H          -1.0988    1.2131    2.4142 H       2  UNL2        0.1146
      8 H          -0.0499    0.2307    1.6502 H       2  UNL2        0.1146
      9 N          -0.9889    2.4162    3.5629 N.3     3  UNL3       -0.3437
     10 H          -0.8611    3.2252    4.1693 H       3  UNL3        0.1146
     11 H          -1.0840    2.7857    2.6180 H       3  UNL3        0.1146
     12 H          -0.1043    1.9106    3.5791 H       3  UNL3        0.1146
     13 N          -0.9680    4.8786    3.5777 N.3     4  UNL4       -0.3437
     14 H          -1.4097    4.0068    3.2892 H       4  UNL4        0.1146
     15 H          -0.2424    4.6187    4.2443 H       4  UNL4        0.1146
     16 H          -0.4805    5.2319    2.7556 H       4  UNL4        0.1146
     17 N          -0.9680    7.0842    1.1317 N.3     5  UNL5       -0.3437
     18 H          -1.4097    7.3748    2.0028 H       5  UNL5        0.1146
     19 H          -0.2424    7.7738    0.9410 H       5  UNL5        0.1146
     20 H          -0.4805    6.2141    1.3406 H       5  UNL5        0.1146
     21 N          -0.9836    7.0842    3.2287 N.3     6  UNL6       -0.3437
     22 H          -1.4253    7.3748    4.0998 H       6  UNL6        0.1146
     23 H          -0.2580    7.7738    3.0380 H       6  UNL6        0.1146
     24 H          -0.4961    6.2141    3.4376 H       6  UNL6        0.1146
     25 N          -0.8239    9.5398    1.1419 N.3     7  UNL7       -0.3437
     26 H          -1.4454    9.8626    1.8821 H       7  UNL7        0.1146
     27 H           0.0822    9.3874    1.5825 H       7  UNL7        0.1146
     28 H          -1.1636    8.6177    0.8722 H       7  UNL7        0.1146
     29 N          -0.8110    9.3266    6.1137 N.3     8  UNL8       -0.3437
     30 H          -1.1159   10.2379    6.4525 H       8  UNL8        0.1146
     31 H           0.1412    9.2040    6.4553 H       8  UNL8        0.1146
     32 H          -1.3775    8.6391    6.6084 H       8  UNL8        0.1146
     33 N          -0.9524   13.9019    0.4182 N.3     9  UNL9       -0.3437
     34 H          -1.3941   13.0301    0.1297 H       9  UNL9        0.1146
     35 H          -0.2268   13.6419    1.0848 H       9  UNL9        0.1146
     36 H          -0.4649   14.2552   -0.4039 H       9  UNL9        0.1146
     37 N          -0.9524   13.8363    2.9017 N.3    10  UNL10      -0.3437
     38 H          -1.3941   13.8961    1.9854 H      10  UNL10       0.1146
     39 H          -0.2268   13.1258    2.8179 H      10  UNL10       0.1146
     40 H          -0.4649   14.7209    3.0368 H      10  UNL10       0.1146
     41 N          -0.7601   13.8843    6.3480 N.3    11  UNL11      -0.3437
     42 H          -1.5159   13.2907    6.6869 H      11  UNL11       0.1146
     43 H          -0.9649   14.8222    6.6897 H      11  UNL11       0.1146
     44 H           0.0778   13.5819    6.8428 H      11  UNL11       0.1146
     45 N          -0.9345   16.3262    1.4715 N.3    12  UNL12      -0.3437
     46 H          -0.8544   16.6168    0.4981 H      12  UNL12       0.1146
     47 H          -1.5344   17.0158    1.9220 H      12  UNL12       0.1146
     48 H          -1.4648   15.4561    1.4621 H      12  UNL12       0.1146
     49 N          -0.9414   16.2505    3.4004 N.3    13  UNL13      -0.3437
     50 H          -1.0196   15.4487    4.0244 H      13  UNL13       0.1146
     51 H          -0.2615   16.8759    3.8305 H      13  UNL13       0.1146
     52 H          -0.5032   15.9022    2.5490 H      13  UNL13       0.1146
     53 N          -0.9451   16.1401    7.2429 N.3    14  UNL14      -0.3437
     54 H          -0.1200   15.5465    7.3152 H      14  UNL14       0.1146
     55 H          -0.5998   17.0780    7.0443 H      14  UNL14       0.1146
     56 H          -1.4358   15.8377    6.4026 H      14  UNL14       0.1146
     57 N          -0.9836   18.3633   -0.9966 N.3    15  UNL15      -0.3437
     58 H          -1.4253   18.6539   -0.1255 H      15  UNL15       0.1146
     59 H          -0.2580   19.0529   -1.1873 H      15  UNL15       0.1146
     60 H          -0.4961   17.4932   -0.7877 H      15  UNL15       0.1146
     61 N          -0.9680   18.3633    1.1317 N.3    16  UNL16      -0.3437
     62 H          -1.4097   18.6539    2.0028 H      16  UNL16       0.1146
     63 H          -0.2424   19.0529    0.9410 H      16  UNL16       0.1146
     64 H          -0.4805   17.4932    1.3406 H      16  UNL16       0.1146
     65 N          -0.9680   18.3633    5.3570 N.3    17  UNL17      -0.3437
     66 H          -1.4097   18.6539    6.2281 H      17  UNL17       0.1146
     67 H          -0.2424   19.0529    5.1663 H      17  UNL17       0.1146
     68 H          -0.4805   17.4932    5.5659 H      17  UNL17       0.1146
     69 N           1.3720    0.3312   -1.2934 N.3    18  UNL18      -0.3437
     70 H           1.4036   -0.1966   -0.4223 H      18  UNL18       0.1146
     71 H           0.3853    0.4998   -1.4841 H      18  UNL18       0.1146
     72 H           1.7774    1.2425   -1.0845 H      18  UNL18       0.1146
     73 N           1.4585    0.5478    3.4383 N.3    19  UNL19      -0.3437
     74 H           0.5857    0.8706    3.0231 H      19  UNL19       0.1146
     75 H           1.2602    0.3954    4.4262 H      19  UNL19       0.1146
     76 H           1.6340   -0.3743    3.0417 H      19  UNL19       0.1146
     77 N           1.2448    0.6052    7.3126 N.3    20  UNL20      -0.3437
     78 H           1.6527    1.5236    7.1436 H      20  UNL20       0.1146
     79 H           0.6000    0.4381    6.5415 H      20  UNL20       0.1146
     80 H           2.0033   -0.0650    7.1947 H      20  UNL20       0.1146
     81 N           0.8230    2.6540   -0.6632 N.3    21  UNL21      -0.3437
     82 H           0.3813    1.7822   -0.9517 H      21  UNL21       0.1146
     83 H           1.5486    2.3941    0.0034 H      21  UNL21       0.1146
     84 H           1.3105    3.0074   -1.4853 H      21  UNL21       0.1146
     85 N           1.0730    1.5947    1.5091 N.3    22  UNL22      -0.3437
     86 H           0.6313    2.1186    0.7550 H      22  UNL22       0.1146
     87 H           1.7986    1.0292    1.0708 H      22  UNL22       0.1146
     88 H           1.5605    2.2827    2.0812 H      22  UNL22       0.1146
     89 N           1.0573    2.4384    3.6062 N.3    23  UNL23      -0.3437
     90 H           0.6156    2.9624    2.8520 H      23  UNL23       0.1146
     91 H           1.7829    1.8729    3.1678 H      23  UNL23       0.1146
     92 H           1.5448    3.1265    4.1782 H      23  UNL23       0.1146
     93 N          -0.8802    1.4475    5.1383 N.3    24  UNL24      -0.3437
     94 H          -1.3219    1.7381    6.0094 H      24  UNL24       0.1146
     95 H          -0.1546    2.1371    4.9476 H      24  UNL24       0.1146
     96 H          -0.3927    0.5774    5.3472 H      24  UNL24       0.1146
     97 N           1.1612    4.2970    3.3002 N.3    25  UNL25      -0.3437
     98 H           0.7542    5.1060    2.8329 H      25  UNL25       0.1146
     99 H           1.7046    4.6665    4.0791 H      25  UNL25       0.1146
    100 H           0.3808    3.7915    3.7171 H      25  UNL25       0.1146
    101 N           1.1874    2.6716    5.2949 N.3    26  UNL26      -0.3437
    102 H           1.3590    1.6869    5.4930 H      26  UNL26       0.1146
    103 H           0.4356    2.9571    5.9207 H      26  UNL26       0.1146
    104 H           2.0187    3.1703    5.6089 H      26  UNL26       0.1146
    105 N           1.6155    7.0325    1.1840 N.3    27  UNL27      -0.3437
    106 H           2.3486    6.4118    1.5242 H      27  UNL27       0.1146
    107 H           0.7462    6.6897    1.5904 H      27  UNL27       0.1146
    108 H           1.7905    7.9378    1.6176 H      27  UNL27       0.1146
    109 N           1.2940    7.1467    3.5685 N.3    28  UNL28      -0.3437
    110 H           1.3741    7.4373    2.5951 H      28  UNL28       0.1146
    111 H           0.6941    7.8363    4.0190 H      28  UNL28       0.1146
    112 H           0.7637    6.2766    3.5591 H      28  UNL28       0.1146
    113 N           0.8230    5.0719    5.6904 N.3    29  UNL29      -0.3437
    114 H           0.3813    4.2001    5.4019 H      29  UNL29       0.1146
    115 H           1.5486    4.8120    6.3570 H      29  UNL29       0.1146
    116 H           1.3105    5.4253    4.8683 H      29  UNL29       0.1146
    117 N           1.0573    9.2059   -0.6035 N.3    30  UNL30      -0.3437
    118 H           0.6156    9.7298   -1.3576 H      30  UNL30       0.1146
    119 H           1.7829    8.6404   -1.0419 H      30  UNL30       0.1146
    120 H           1.5448    9.8939   -0.0315 H      30  UNL30       0.1146
    121 N           1.1719    9.0587    1.1260 N.3    31  UNL31      -0.3437
    122 H           2.1341    9.3493    0.9585 H      31  UNL31       0.1146
    123 H           0.5848    9.7483    0.6588 H      31  UNL31       0.1146
    124 H           1.0475    8.1886    0.6104 H      31  UNL31       0.1146
    125 N          -1.4136    9.3316    3.4071 N.3    32  UNL32      -0.3437
    126 H          -1.1474   10.2500    3.7593 H      32  UNL32       0.1146
    127 H          -0.8296    9.1645    2.5889 H      32  UNL32       0.1146
    128 H          -1.1086    8.6614    4.1115 H      32  UNL32       0.1146
    129 N           1.0417    7.0122    5.7956 N.3    33  UNL33      -0.3437
    130 H           0.6000    7.0720    4.8793 H      33  UNL33       0.1146
    131 H           1.7673    6.3016    5.7118 H      33  UNL33       0.1146
    132 H           1.5292    7.8968    5.9307 H      33  UNL33       0.1146
    133 N           1.0573   11.7328   -0.5631 N.3    34  UNL34      -0.3437
    134 H           0.6156   11.1348   -1.2601 H      34  UNL34       0.1146
    135 H           1.7829   11.1662   -0.1262 H      34  UNL34       0.1146
    136 H           1.5448   12.4596   -1.0851 H      34  UNL34       0.1146
    137 N           1.0573   11.5958    1.1161 N.3    35  UNL35      -0.3437
    138 H           0.6156   11.8864    1.9872 H      35  UNL35       0.1146
    139 H           1.7829   12.2854    0.9254 H      35  UNL35       0.1146
    140 H           1.5448   10.7257    1.3250 H      35  UNL35       0.1146
    141 N           1.0417   11.4325    3.3649 N.3    36  UNL36      -0.3437
    142 H           0.6000   12.2943    3.6822 H      36  UNL36       0.1146
    143 H           1.7673   11.7144    2.7073 H      36  UNL36       0.1146
    144 H           1.5292   11.0521    4.1748 H      36  UNL36       0.1146
    145 N          -0.8802   11.6031    7.3126 N.3    37  UNL37      -0.3437
    146 H          -0.4723   12.5215    7.1436 H      37  UNL37       0.1146
    147 H          -1.5250   11.4359    6.5415 H      37  UNL37       0.1146
    148 H          -0.1217   10.9329    7.1947 H      37  UNL37       0.1146
    149 N           1.0573   14.2612    0.2932 N.3    38  UNL38      -0.3437
    150 H           0.6156   13.3894    0.0047 H      38  UNL38       0.1146
    151 H           1.7829   14.0013    0.9598 H      38  UNL38       0.1146
    152 H           1.5448   14.6146   -0.5289 H      38  UNL38       0.1146
    153 N           1.0417   13.8363    2.8548 N.3    39  UNL39      -0.3437
    154 H           0.6000   13.8961    1.9385 H      39  UNL39       0.1146
    155 H           1.7673   13.1258    2.7711 H      39  UNL39       0.1146
    156 H           1.5292   14.7209    2.9899 H      39  UNL39       0.1146
    157 N           1.3877   11.9442    5.3570 N.3    40  UNL40      -0.3437
    158 H           1.4192   11.4165    6.2281 H      40  UNL40       0.1146
    159 H           0.4009   12.1129    5.1663 H      40  UNL40       0.1146
    160 H           1.7930   12.8555    5.5659 H      40  UNL40       0.1146
    161 N           0.8519   16.3871    1.4456 N.3    41  UNL41      -0.3437
    162 H           0.2128   15.7520    0.9696 H      41  UNL41       0.1146
    163 H           1.1153   15.9224    2.3133 H      41  UNL41       0.1146
    164 H           1.6958   16.4160    0.8751 H      41  UNL41       0.1146
    165 N           0.9323   16.1074    3.7444 N.3    42  UNL42      -0.3437
    166 H           0.4906   16.3980    4.6155 H      42  UNL42       0.1146
    167 H           1.6579   16.7970    3.5537 H      42  UNL42       0.1146
    168 H           1.4198   15.2373    3.9533 H      42  UNL42       0.1146
    169 N           1.0573   14.4702    5.6904 N.3    43  UNL43      -0.3437
    170 H           0.6156   13.5984    5.4019 H      43  UNL43       0.1146
    171 H           1.7829   14.2103    6.3570 H      43  UNL43       0.1146
    172 H           1.5448   14.8235    4.8683 H      43  UNL43       0.1146
    173 N           1.0573   18.3633    1.1317 N.3    44  UNL44      -0.3437
    174 H           0.6156   18.6539    2.0028 H      44  UNL44       0.1146
    175 H           1.7829   19.0529    0.9410 H      44  UNL44       0.1146
    176 H           1.5448   17.4932    1.3406 H      44  UNL44       0.1146
    177 N           1.0573   19.7885    3.5621 N.3    45  UNL45      -0.3437
    178 H           0.6156   18.9167    3.2736 H      45  UNL45       0.1146
    179 H           1.7829   19.5286    4.2287 H      45  UNL45       0.1146
    180 H           1.5448   20.1419    2.7400 H      45  UNL45       0.1146
    181 N           1.0573   18.3633    5.3570 N.3    46  UNL46      -0.3437
    182 H           0.6156   18.6539    6.2281 H      46  UNL46       0.1146
    183 H           1.7829   19.0529    5.1663 H      46  UNL46       0.1146
    184 H           1.5448   17.4932    5.5659 H      46  UNL46       0.1146
    185 N           3.0983    0.5163   -0.0251 N.3    47  UNL47      -0.3437
    186 H           2.6566    0.0176    0.7460 H      47  UNL47       0.1146
    187 H           3.8239    1.0960    0.3942 H      47  UNL47       0.1146
    188 H           3.5858   -0.1904   -0.5740 H      47  UNL47       0.1146
    189 N           3.0827    0.1826    3.6218 N.3    48  UNL48      -0.3437
    190 H           2.6410    0.7066    2.8677 H      48  UNL48       0.1146
    191 H           3.8083   -0.3829    3.1835 H      48  UNL48       0.1146
    192 H           3.5702    0.8707    4.1939 H      48  UNL48       0.1146
    193 N           4.1838    0.3493    7.2429 N.3    49  UNL49      -0.3437
    194 H           5.0089   -0.2442    7.3152 H      49  UNL49       0.1146
    195 H           4.5290    1.2873    7.0443 H      49  UNL49       0.1146
    196 H           3.6930    0.0470    6.4026 H      49  UNL49       0.1146
    197 N           3.1184    2.3866   -0.6847 N.3    50  UNL50      -0.3437
    198 H           2.5554    2.0982   -1.4836 H      50  UNL50       0.1146
    199 H           3.8476    2.9921   -1.0589 H      50  UNL50       0.1146
    200 H           2.5183    2.9859   -0.1198 H      50  UNL50       0.1146
    201 N           3.3115    2.8068    1.5494 N.3    51  UNL51      -0.3437
    202 H           3.9304    3.6158    1.5784 H      51  UNL51       0.1146
    203 H           2.3730    3.1763    1.4036 H      51  UNL51       0.1146
    204 H           3.5497    2.3013    0.6973 H      51  UNL51       0.1146
    205 N           3.2338    2.8036    3.4383 N.3    52  UNL52      -0.3437
    206 H           2.3610    3.1264    3.0231 H      52  UNL52       0.1146
    207 H           3.0355    2.6512    4.4262 H      52  UNL52       0.1146
    208 H           3.4093    1.8815    3.0417 H      52  UNL52       0.1146
    209 N           3.2161    2.3140    6.5070 N.3    53  UNL53      -0.3437
    210 H           3.8252    2.2979    7.3237 H      53  UNL53       0.1146
    211 H           2.3786    2.8202    6.7911 H      53  UNL53       0.1146
    212 H           3.6823    2.9055    5.8206 H      53  UNL53       0.1146
    213 N           1.9207    4.6792    1.5527 N.3    54  UNL54      -0.3437
    214 H           2.7409    4.9988    1.0394 H      54  UNL54       0.1146
    215 H           1.4651    5.5197    1.9055 H      54  UNL54       0.1146
    216 H           1.2881    4.2883    0.8560 H      54  UNL54       0.1146
    217 N           3.0827    4.6651    3.3493 N.3    55  UNL55      -0.3437
    218 H           2.6410    5.5268    3.6666 H      55  UNL55       0.1146
    219 H           3.8083    4.9470    2.6917 H      55  UNL55       0.1146
    220 H           3.5702    4.2846    4.1592 H      55  UNL55       0.1146
    221 N           3.0145    4.8454    6.4445 N.3    56  UNL56      -0.3437
    222 H           3.1522    4.2518    7.2612 H      56  UNL56       0.1146
    223 H           3.2936    5.7833    6.7286 H      56  UNL56       0.1146
    224 H           3.7043    4.5430    5.7581 H      56  UNL56       0.1146
    225 N           3.0827    7.0685   -0.9966 N.3    57  UNL57      -0.3437
    226 H           2.6410    7.3591   -0.1255 H      57  UNL57       0.1146
    227 H           3.8083    7.7581   -1.1873 H      57  UNL57       0.1146
    228 H           3.5702    6.1984   -0.7877 H      57  UNL57       0.1146
    229 N           3.4421    7.6310    1.1317 N.3    58  UNL58      -0.3437
    230 H           3.0004    7.9216    2.0028 H      58  UNL58       0.1146
    231 H           4.1677    8.3206    0.9410 H      58  UNL58       0.1146
    232 H           3.9296    6.7609    1.3406 H      58  UNL58       0.1146
    233 N           3.0671    7.0842    3.2287 N.3    59  UNL59      -0.3437
    234 H           2.6254    7.3748    4.0998 H      59  UNL59       0.1146
    235 H           3.7927    7.7738    3.0380 H      59  UNL59       0.1146
    236 H           3.5546    6.2141    3.4376 H      59  UNL59       0.1146
    237 N           3.3014    7.0842    5.3570 N.3    60  UNL60      -0.3437
    238 H           2.8597    7.3748    6.2281 H      60  UNL60       0.1146
    239 H           4.0270    7.7738    5.1663 H      60  UNL60       0.1146
    240 H           3.7889    6.2141    5.5659 H      60  UNL60       0.1146
    241 N           3.0671    9.6455   -0.7321 N.3    61  UNL61      -0.3437
    242 H           2.6254   10.5072   -0.4148 H      61  UNL61       0.1146
    243 H           3.7927    9.9274   -1.3897 H      61  UNL61       0.1146
    244 H           3.5546    9.2650    0.0778 H      61  UNL61       0.1146
    245 N           3.1139    9.4059    3.2652 N.3    62  UNL62      -0.3437
    246 H           2.6722    8.5341    2.9767 H      62  UNL62       0.1146
    247 H           3.8395    9.1459    3.9318 H      62  UNL62       0.1146
    248 H           3.6014    9.7592    2.4431 H      62  UNL62       0.1146
    249 N           1.0143    9.1672    4.7247 N.3    63  UNL63      -0.3437
    250 H           1.0727    9.8255    5.5003 H      63  UNL63       0.1146
    251 H           0.8894    9.7320    3.8857 H      63  UNL63       0.1146
    252 H           1.9383    8.7453    4.6442 H      63  UNL63       0.1146
    253 N           3.1174   11.8269    1.1419 N.3    64  UNL64      -0.3437
    254 H           2.4960   12.1497    1.8821 H      64  UNL64       0.1146
    255 H           4.0236   11.6745    1.5825 H      64  UNL64       0.1146
    256 H           2.7777   10.9048    0.8722 H      64  UNL64       0.1146
    257 N           3.0429   11.7956    3.4117 N.3    65  UNL65      -0.3437
    258 H           3.6029   12.1184    4.1995 H      65  UNL65       0.1146
    259 H           3.6974   11.6433    2.6456 H      65  UNL65       0.1146
    260 H           2.6965   10.8735    3.6726 H      65  UNL65       0.1146
    261 N           3.0066    9.5021    6.5423 N.3    66  UNL66      -0.3437
    262 H           2.5730    9.7927    5.6671 H      66  UNL66       0.1146
    263 H           2.7251   10.1917    7.2377 H      66  UNL66       0.1146
    264 H           2.5475    8.6320    6.8078 H      66  UNL66       0.1146
    265 N           3.0827   14.0581   -0.0350 N.3    67  UNL67      -0.3437
    266 H           2.6410   13.1863   -0.3235 H      67  UNL67       0.1146
    267 H           3.8083   13.7982    0.6316 H      67  UNL67       0.1146
    268 H           3.5702   14.4115   -0.8571 H      67  UNL67       0.1146
    269 N           3.0671   14.0894    2.4215 N.3    68  UNL68      -0.3437
    270 H           2.6254   13.2176    2.1329 H      68  UNL68       0.1146
    271 H           3.7927   13.8294    3.0881 H      68  UNL68       0.1146
    272 H           3.5546   14.4427    1.5993 H      68  UNL68       0.1146
    273 N           3.0827   12.0079    6.3258 N.3    69  UNL69      -0.3437
    274 H           2.6410   12.2985    7.1969 H      69  UNL69       0.1146
    275 H           3.8083   12.6975    6.1351 H      69  UNL69       0.1146
    276 H           3.5702   11.1378    6.5347 H      69  UNL69       0.1146
    277 N           2.8327   17.2324   -0.9809 N.3    70  UNL70      -0.3437
    278 H           2.3910   17.5230   -0.1098 H      70  UNL70       0.1146
    279 H           3.5583   17.9220   -1.1716 H      70  UNL70       0.1146
    280 H           3.3202   16.3623   -0.7720 H      70  UNL70       0.1146
    281 N           3.0983   16.5293    1.1630 N.3    71  UNL71      -0.3437
    282 H           2.6566   16.8199    2.0341 H      71  UNL71       0.1146
    283 H           3.8239   17.2189    0.9723 H      71  UNL71       0.1146
    284 H           3.5858   15.6592    1.3719 H      71  UNL71       0.1146
    285 N           3.0671   16.1074    3.2444 N.3    72  UNL72      -0.3437
    286 H           2.6254   16.3980    4.1155 H      72  UNL72       0.1146
    287 H           3.7927   16.7970    3.0537 H      72  UNL72       0.1146
    288 H           3.5546   15.2373    3.4533 H      72  UNL72       0.1146
    289 N           3.0827   16.1074    5.3727 N.3    73  UNL73      -0.3437
    290 H           2.6410   16.3980    6.2438 H      73  UNL73       0.1146
    291 H           3.8083   16.7970    5.1820 H      73  UNL73       0.1146
    292 H           3.5702   15.2373    5.5816 H      73  UNL73       0.1146
    293 N           3.2604   20.0864   -0.9475 N.3    74  UNL74      -0.3437
    294 H           2.4544   20.0365   -0.3261 H      74  UNL74       0.1146
    295 H           4.0792   20.1312   -0.3425 H      74  UNL74       0.1146
    296 H           3.3083   19.1840   -1.4184 H      74  UNL74       0.1146
    297 N           3.2604   19.6020    1.1651 N.3    75  UNL75      -0.3437
    298 H           2.4544   19.5522    1.7866 H      75  UNL75       0.1146
    299 H           4.0792   19.6469    1.7701 H      75  UNL75       0.1146
    300 H           3.3083   18.6996    0.6943 H      75  UNL75       0.1146
    301 N           3.0827   19.7885    3.5777 N.3    76  UNL76      -0.3437
    302 H           2.6410   18.9167    3.2892 H      76  UNL76       0.1146
    303 H           3.8083   19.5286    4.2443 H      76  UNL76       0.1146
    304 H           3.5702   20.1419    2.7556 H      76  UNL76       0.1146
    305 N           3.3287   19.4570    6.8055 N.3    77  UNL77      -0.3437
    306 H           2.3725   19.7476    7.0048 H      77  UNL77       0.1146
    307 H           3.9309   20.1466    7.2529 H      77  UNL77       0.1146
    308 H           3.4701   18.5869    7.3167 H      77  UNL77       0.1146
    309 N           5.4486    0.2961    4.0951 N.3    78  UNL78      -0.3437
    310 H           5.9694    1.0937    3.7333 H      78  UNL78       0.1146
    311 H           4.6355    0.6841    4.5713 H      78  UNL78       0.1146
    312 H           5.0876   -0.1970    3.2797 H      78  UNL78       0.1146
    313 N           5.0683    0.6318    1.1909 N.3    79  UNL79      -0.3437
    314 H           5.4844    1.4517    1.6300 H      79  UNL79       0.1146
    315 H           5.7922    0.2354    0.5932 H      79  UNL79       0.1146
    316 H           4.9213   -0.0437    1.9396 H      79  UNL79       0.1146
    317 N           5.0924    2.3936    3.3493 N.3    80  UNL80      -0.3437
    318 H           4.6507    3.2554    3.6666 H      80  UNL80       0.1146
    319 H           5.8180    2.6755    2.6917 H      80  UNL80       0.1146
    320 H           5.5799    2.0132    4.1592 H      80  UNL80       0.1146
    321 N           5.0745    2.4173    6.5305 N.3    81  UNL81      -0.3437
    322 H           5.2013    3.0665    7.3057 H      81  UNL81       0.1146
    323 H           5.0601    2.9876    5.6861 H      81  UNL81       0.1146
    324 H           5.9303    1.8663    6.4827 H      81  UNL81       0.1146
    325 N           5.1237    3.0348   -0.6320 N.3    82  UNL82      -0.3437
    326 H           4.6820    2.1630   -0.9205 H      82  UNL82       0.1146
    327 H           5.8493    2.7749    0.0346 H      82  UNL82       0.1146
    328 H           5.6112    3.3882   -1.4541 H      82  UNL82       0.1146
    329 N           5.2843    5.1080    1.3877 N.3    83  UNL83      -0.3437
    330 H           5.6105    4.4729    2.1147 H      83  UNL83       0.1146
    331 H           5.4769    4.6433    0.5015 H      83  UNL83       0.1146
    332 H           4.2694    5.1369    1.4748 H      83  UNL83       0.1146
    333 N           5.2990    5.2799    3.6068 N.3    84  UNL84      -0.3437
    334 H           4.6776    4.6447    4.1056 H      84  UNL84       0.1146
    335 H           6.2052    4.8151    3.5703 H      84  UNL84       0.1146
    336 H           4.9594    5.3088    2.6466 H      84  UNL84       0.1146
    337 N           5.3316    4.8297    6.4730 N.3    85  UNL85      -0.3437
    338 H           4.5758    4.2362    6.8119 H      85  UNL85       0.1146
    339 H           5.1268    5.7677    6.8147 H      85  UNL85       0.1146
    340 H           6.1695    4.5274    6.9678 H      85  UNL85       0.1146
    341 N           5.1081    5.1935   -0.9809 N.3    86  UNL86      -0.3437
    342 H           4.6664    5.4841   -0.1098 H      86  UNL86       0.1146
    343 H           5.8337    5.8831   -1.1716 H      86  UNL86       0.1146
    344 H           5.5956    4.3234   -0.7720 H      86  UNL86       0.1146
    345 N           5.3323    7.2707    1.0801 N.3    87  UNL87      -0.3437
    346 H           5.4197    6.4329    0.5066 H      87  UNL87       0.1146
    347 H           5.5461    6.9820    2.0336 H      87  UNL87       0.1146
    348 H           6.0930    7.8862    0.7958 H      87  UNL87       0.1146
    349 N           5.5791    7.5373    3.9591 N.3    88  UNL88      -0.3437
    350 H           5.6592    7.8279    2.9857 H      88  UNL88       0.1146
    351 H           4.9792    8.2269    4.4097 H      88  UNL88       0.1146
    352 H           5.0488    6.6672    3.9498 H      88  UNL88       0.1146
    353 N           5.1310    7.0856    7.2429 N.3    89  UNL89      -0.3437
    354 H           5.9561    6.4920    7.3152 H      89  UNL89       0.1146
    355 H           5.4763    8.0235    7.0443 H      89  UNL89       0.1146
    356 H           4.6403    6.7832    6.4026 H      89  UNL89       0.1146
    357 N           4.8781    9.7495    1.3758 N.3    90  UNL90      -0.3437
    358 H           5.0549   10.4800    2.0639 H      90  UNL90       0.1146
    359 H           5.5241    9.9250    0.6075 H      90  UNL90       0.1146
    360 H           5.1840    8.8780    1.8064 H      90  UNL90       0.1146
    361 N           5.4623    9.8835    3.4383 N.3    91  UNL91      -0.3437
    362 H           4.5895   10.2064    3.0231 H      91  UNL91       0.1146
    363 H           5.2640    9.7312    4.4262 H      91  UNL91       0.1146
    364 H           5.6378    8.9614    3.0417 H      91  UNL91       0.1146
    365 N           5.3159    9.3414    6.8324 N.3    92  UNL92      -0.3437
    366 H           4.5601    8.7478    7.1713 H      92  UNL92       0.1146
    367 H           5.1112   10.2793    7.1741 H      92  UNL92       0.1146
    368 H           6.1539    9.0390    7.3272 H      92  UNL92       0.1146
    369 N           5.1081   11.6114   -1.2466 N.3    93  UNL93      -0.3437
    370 H           4.6664   11.9020   -0.3755 H      93  UNL93       0.1146
    371 H           5.8337   12.3010   -1.4373 H      93  UNL93       0.1146
    372 H           5.5956   10.7413   -1.0377 H      93  UNL93       0.1146
    373 N           5.3112   11.6648    1.5091 N.3    94  UNL94      -0.3437
    374 H           4.8695   12.1888    0.7550 H      94  UNL94       0.1146
    375 H           6.0368   11.0993    1.0708 H      94  UNL94       0.1146
    376 H           5.7987   12.3529    2.0812 H      94  UNL94       0.1146
    377 N           5.2382   12.1427    3.7543 N.3    95  UNL95      -0.3437
    378 H           6.2004   12.4333    3.5868 H      95  UNL95       0.1146
    379 H           4.6512   12.8323    3.2871 H      95  UNL95       0.1146
    380 H           5.1138   11.2726    3.2387 H      95  UNL95       0.1146
    381 N           5.1310   11.5972    6.3054 N.3    96  UNL96      -0.3437
    382 H           5.9561   11.0036    6.3777 H      96  UNL96       0.1146
    383 H           5.4763   12.5352    6.1068 H      96  UNL96       0.1146
    384 H           4.6403   11.2948    5.4651 H      96  UNL96       0.1146
    385 N           5.1393   13.5707   -0.0859 N.3    97  UNL97      -0.3437
    386 H           4.6976   13.6305   -1.0023 H      97  UNL97       0.1146
    387 H           5.8649   12.8601   -0.1697 H      97  UNL97       0.1146
    388 H           5.6268   14.4553    0.0491 H      97  UNL97       0.1146
    389 N           5.1081   13.7456    2.0621 N.3    98  UNL98      -0.3437
    390 H           4.6664   12.8738    1.7736 H      98  UNL98       0.1146
    391 H           5.8337   13.4857    2.7287 H      98  UNL98       0.1146
    392 H           5.5956   14.0990    1.2400 H      98  UNL98       0.1146
    393 N           5.2534   13.8530    6.8324 N.3    99  UNL99      -0.3437
    394 H           4.4976   13.2595    7.1713 H      99  UNL99       0.1146
    395 H           5.0487   14.7910    7.1741 H      99  UNL99       0.1146
    396 H           6.0914   13.5507    7.3272 H      99  UNL99       0.1146
    397 N           5.0166   16.2324   -0.5631 N.3   100  UNL100     -0.3437
    398 H           5.0967   16.5230   -1.5365 H     100  UNL100      0.1146
    399 H           4.4167   16.9220   -0.1125 H     100  UNL100      0.1146
    400 H           4.4863   15.3623   -0.5724 H     100  UNL100      0.1146
    401 N           5.1237   16.0918    1.1161 N.3   101  UNL101     -0.3437
    402 H           4.6820   16.3824    1.9872 H     101  UNL101      0.1146
    403 H           5.8493   16.7814    0.9254 H     101  UNL101      0.1146
    404 H           5.6112   15.2217    1.3250 H     101  UNL101      0.1146
    405 N           5.1237   16.2444    3.6778 N.3   102  UNL102     -0.3437
    406 H           4.6820   15.6464    2.9809 H     102  UNL102      0.1146
    407 H           5.8493   15.6778    4.1147 H     102  UNL102      0.1146
    408 H           5.6112   16.9712    3.1559 H     102  UNL102      0.1146
    409 N           5.2211   16.4157    6.5070 N.3   103  UNL103     -0.3437
    410 H           4.6813   16.1330    7.3237 H     103  UNL103      0.1146
    411 H           6.1991   16.3816    6.7911 H     103  UNL103      0.1146
    412 H           5.1021   15.6720    5.8206 H     103  UNL103      0.1146
    413 N           5.0924   18.3789   -0.9966 N.3   104  UNL104     -0.3437
    414 H           4.6507   18.6695   -0.1255 H     104  UNL104      0.1146
    415 H           5.8180   19.0685   -1.1873 H     104  UNL104      0.1146
    416 H           5.5799   17.5088   -0.7877 H     104  UNL104      0.1146
    417 N           5.4743   18.3591    1.1317 N.3   105  UNL105     -0.3437
    418 H           5.7735   17.9232    2.0028 H     105  UNL105      0.1146
    419 H           4.5420   17.9945    0.9410 H     105  UNL105      0.1146
    420 H           5.3513   19.3489    1.3406 H     105  UNL105      0.1146
    421 N           5.3632   19.4570    3.7543 N.3   106  UNL106     -0.3437
    422 H           6.3254   19.7476    3.5868 H     106  UNL106      0.1146
    423 H           4.7762   20.1466    3.2871 H     106  UNL106      0.1146
    424 H           5.2388   18.5869    3.2387 H     106  UNL106      0.1146
    425 N           5.1081   18.3633    5.3570 N.3   107  UNL107     -0.3437
    426 H           4.6664   18.6539    6.2281 H     107  UNL107      0.1146
    427 H           5.8337   19.0529    5.1663 H     107  UNL107      0.1146
    428 H           5.5956   17.4932    5.5659 H     107  UNL107      0.1146
    429 N           7.0507    0.4719   -0.2272 N.3   108  UNL108     -0.3437
    430 H           7.5015    0.0909    0.6034 H     108  UNL108      0.1146
    431 H           7.7222    1.1180   -0.6398 H     108  UNL108      0.1146
    432 H           6.9682   -0.3038   -0.8828 H     108  UNL108      0.1146
    433 N           7.1490    0.4537    3.6466 N.3   109  UNL109     -0.3437
    434 H           6.7073   -0.1443    2.9496 H     109  UNL109      0.1146
    435 H           7.8746   -0.1129    4.0835 H     109  UNL109      0.1146
    436 H           7.6365    1.1805    3.1246 H     109  UNL109      0.1146
    437 N           7.0084    2.6939   -0.5788 N.3   110  UNL110     -0.3437
    438 H           6.5667    2.0959   -1.2757 H     110  UNL110      0.1146
    439 H           7.7340    2.1273   -0.1418 H     110  UNL110      0.1146
    440 H           7.4959    3.4207   -1.1007 H     110  UNL110      0.1146
    441 N           6.8365    2.0735    1.4615 N.3   111  UNL111     -0.3437
    442 H           6.3948    1.5149    0.7326 H     111  UNL111      0.1146
    443 H           7.5621    1.4837    1.8665 H     111  UNL111      0.1146
    444 H           7.3240    2.8281    0.9805 H     111  UNL111      0.1146
    445 N           7.1334    2.9353    3.5933 N.3   112  UNL112     -0.3437
    446 H           6.6917    2.0635    3.3048 H     112  UNL112      0.1146
    447 H           7.8590    2.6753    4.2599 H     112  UNL112      0.1146
    448 H           7.6209    3.2886    2.7712 H     112  UNL112      0.1146
    449 N           6.9147    0.4540    5.7345 N.3   113  UNL113     -0.3437
    450 H           6.4730    0.9780    4.9803 H     113  UNL113      0.1146
    451 H           7.6403   -0.1114    5.2961 H     113  UNL113      0.1146
    452 H           7.4022    1.1421    6.3065 H     113  UNL113      0.1146
    453 N           7.0861    5.0071    1.2714 N.3   114  UNL114     -0.3437
    454 H           7.9510    5.4228    0.9285 H     114  UNL114      0.1146
    455 H           7.0826    4.0462    0.9324 H     114  UNL114      0.1146
    456 H           7.1853    4.9474    2.2838 H     114  UNL114      0.1146
    457 N           7.4354    5.5158    3.8636 N.3   115  UNL115     -0.3437
    458 H           8.3977    5.8064    3.6962 H     115  UNL115      0.1146
    459 H           6.8484    6.2054    3.3964 H     115  UNL115      0.1146
    460 H           7.3111    4.6457    3.3480 H     115  UNL115      0.1146
    461 N           6.9772    2.6942    5.7345 N.3   116  UNL116     -0.3437
    462 H           6.5355    3.2182    4.9803 H     116  UNL116      0.1146
    463 H           7.7028    2.1287    5.2961 H     116  UNL116      0.1146
    464 H           7.4647    3.3823    6.3065 H     116  UNL116      0.1146
    465 N           7.1647    7.2907   -0.4725 N.3   117  UNL117     -0.3437
    466 H           6.7230    6.4189   -0.7610 H     117  UNL117      0.1146
    467 H           7.8903    7.0307    0.1941 H     117  UNL117      0.1146
    468 H           7.6522    7.6440   -1.2946 H     117  UNL117      0.1146
    469 N           7.2740    6.9907    2.2298 N.3   118  UNL118     -0.3437
    470 H           6.8323    7.0505    1.3135 H     118  UNL118      0.1146
    471 H           7.9996    6.2802    2.1461 H     118  UNL118      0.1146
    472 H           7.7615    7.8753    2.3649 H     118  UNL118      0.1146
    473 N           7.1178    5.3539    5.3588 N.3   119  UNL119     -0.3437
    474 H           6.6761    5.3753    6.2768 H     119  UNL119      0.1146
    475 H           7.8434    6.0691    5.3794 H     119  UNL119      0.1146
    476 H           7.6053    4.4609    5.3024 H     119  UNL119      0.1146
    477 N           7.1178    9.3556   -0.9653 N.3   120  UNL120     -0.3437
    478 H           6.6761    9.6462   -0.0942 H     120  UNL120      0.1146
    479 H           7.8434   10.0452   -1.1560 H     120  UNL120      0.1146
    480 H           7.6053    8.4855   -0.7564 H     120  UNL120      0.1146
    481 N           7.3706    9.1248    1.5169 N.3   121  UNL121     -0.3437
    482 H           6.4261    9.4955    1.6112 H     121  UNL121      0.1146
    483 H           7.5103    8.9621    0.5207 H     121  UNL121      0.1146
    484 H           7.9981    9.8876    1.7674 H     121  UNL121      0.1146
    485 N           7.2115    9.4769    3.6466 N.3   122  UNL122     -0.3437
    486 H           6.7698    8.8790    2.9496 H     122  UNL122      0.1146
    487 H           7.9371    8.9104    4.0835 H     122  UNL122      0.1146
    488 H           7.6990   10.2038    3.1246 H     122  UNL122      0.1146
    489 N           6.1959    7.0152    5.6435 N.3   123  UNL123     -0.3437
    490 H           5.7542    6.1434    5.3550 H     123  UNL123      0.1146
    491 H           6.9215    6.7553    6.3101 H     123  UNL123      0.1146
    492 H           6.6834    7.3686    4.8214 H     123  UNL123      0.1146
    493 N           7.1334   11.8179   -0.0818 N.3   124  UNL124     -0.3437
    494 H           6.6917   10.9461   -0.3703 H     124  UNL124      0.1146
    495 H           7.8590   11.5580    0.5848 H     124  UNL124      0.1146
    496 H           7.6209   12.1713   -0.9039 H     124  UNL124      0.1146
    497 N           7.5950   11.7742    2.2717 N.3   125  UNL125     -0.3437
    498 H           7.2131   11.5002    3.1759 H     125  UNL125      0.1146
    499 H           7.6985   10.9125    1.7377 H     125  UNL125      0.1146
    500 H           6.8610   12.3064    1.8065 H     125  UNL125      0.1146
    501 N           7.1178    8.3211    6.1407 N.3   126  UNL126     -0.3437
    502 H           6.6761    8.8450    5.3866 H     126  UNL126      0.1146
    503 H           7.8434    7.7556    5.7024 H     126  UNL126      0.1146
    504 H           7.6053    9.0091    6.7128 H     126  UNL126      0.1146
    505 N           7.1490   13.8363    0.1016 N.3   127  UNL127     -0.3437
    506 H           6.7073   13.8961   -0.8148 H     127  UNL127      0.1146
    507 H           7.8746   13.1258    0.0178 H     127  UNL127      0.1146
    508 H           7.6365   14.7209    0.2366 H     127  UNL127      0.1146
    509 N           7.0826   13.7216    3.4088 N.3   128  UNL128     -0.3437
    510 H           6.8041   14.5193    3.9785 H     128  UNL128      0.1146
    511 H           7.5607   14.1097    2.5969 H     128  UNL128      0.1146
    512 H           7.7951   13.2286    3.9451 H     128  UNL128      0.1146
    513 N           7.1334   12.7144    5.6904 N.3   129  UNL129     -0.3437
    514 H           6.6917   11.8426    5.4019 H     129  UNL129      0.1146
    515 H           7.8590   12.4544    6.3570 H     129  UNL129      0.1146
    516 H           7.6209   13.0677    4.8683 H     129  UNL129      0.1146
    517 N           7.1213   17.2135   -0.6895 N.3   130  UNL130     -0.3437
    518 H           6.4998   17.5363    0.0507 H     130  UNL130      0.1146
    519 H           8.0274   17.0611   -0.2490 H     130  UNL130      0.1146
    520 H           6.7816   16.2914   -0.9592 H     130  UNL130      0.1146
    521 N           7.1178   16.1074    1.1161 N.3   131  UNL131     -0.3437
    522 H           6.6761   16.3980    1.9872 H     131  UNL131      0.1146
    523 H           7.8434   16.7970    0.9254 H     131  UNL131      0.1146
    524 H           7.6053   15.2373    1.3250 H     131  UNL131      0.1146
    525 N           7.0826   15.9462    3.3776 N.3   132  UNL132     -0.3437
    526 H           6.8041   16.7438    3.9473 H     132  UNL132      0.1146
    527 H           7.5607   16.3342    2.5656 H     132  UNL132      0.1146
    528 H           7.7951   15.4531    3.9138 H     132  UNL132      0.1146
    529 N           7.1178   14.5327    5.6904 N.3   133  UNL133     -0.3437
    530 H           6.6761   13.6609    5.4019 H     133  UNL133      0.1146
    531 H           7.8434   14.2728    6.3570 H     133  UNL133      0.1146
    532 H           7.6053   14.8860    4.8683 H     133  UNL133      0.1146
    533 N           7.3111   20.1020    1.1651 N.3   134  UNL134     -0.3437
    534 H           6.5051   20.0522    1.7866 H     134  UNL134      0.1146
    535 H           8.1299   20.1469    1.7701 H     134  UNL134      0.1146
    536 H           7.3590   19.1996    0.6943 H     134  UNL134      0.1146
    537 N           7.1178   18.3633    3.2287 N.3   135  UNL135     -0.3437
    538 H           6.6761   18.6539    4.0998 H     135  UNL135      0.1146
    539 H           7.8434   19.0529    3.0380 H     135  UNL135      0.1146
    540 H           7.6053   17.4932    3.4376 H     135  UNL135      0.1146
    541 N           7.3794   19.4570    6.8055 N.3   136  UNL136     -0.3437
    542 H           6.4233   19.7476    7.0048 H     136  UNL136      0.1146
    543 H           7.9816   20.1466    7.2529 H     136  UNL136      0.1146
    544 H           7.5208   18.5869    7.3167 H     136  UNL136      0.1146
    545 N           9.3843    0.4176   -1.0431 N.3   137  UNL137     -0.3437
    546 H           8.4745    0.0037   -0.8450 H     137  UNL137      0.1146
    547 H           9.4714    1.2171   -0.4173 H     137  UNL137      0.1146
    548 H          10.0762   -0.2614   -0.7291 H     137  UNL137      0.1146
    549 N           9.1432    0.4380    1.5339 N.3   138  UNL138     -0.3437
    550 H           8.7015   -0.1599    0.8370 H     138  UNL138      0.1146
    551 H           9.8688   -0.1285    1.9708 H     138  UNL138      0.1146
    552 H           9.6307    1.1649    1.0119 H     138  UNL138      0.1146
    553 N           9.1588    0.5388    3.5777 N.3   139  UNL139     -0.3437
    554 H           8.7171   -0.3330    3.2892 H     139  UNL139      0.1146
    555 H           9.8844    0.2789    4.2443 H     139  UNL139      0.1146
    556 H           9.6463    0.8922    2.7556 H     139  UNL139      0.1146
    557 N           9.0645    0.5474    6.4508 N.3   140  UNL140     -0.3437
    558 H           9.2940    1.0236    7.3219 H     140  UNL140      0.1146
    559 H           9.8440   -0.0806    6.2601 H     140  UNL140      0.1146
    560 H           8.2665   -0.0510    6.6597 H     140  UNL140      0.1146
    561 N           8.7786    2.4172    1.1959 N.3   141  UNL141     -0.3437
    562 H           8.9063    2.0340    2.1314 H     141  UNL141      0.1146
    563 H           8.6835    3.4247    1.3156 H     141  UNL141      0.1146
    564 H           9.6632    2.2743    0.7107 H     141  UNL141      0.1146
    565 N           9.0963    2.7946    3.5777 N.3   142  UNL142     -0.3437
    566 H           8.6546    1.9228    3.2892 H     142  UNL142      0.1146
    567 H           9.8219    2.5347    4.2443 H     142  UNL142      0.1146
    568 H           9.5838    3.1480    2.7556 H     142  UNL142      0.1146
    569 N           9.1661    2.5739    6.9616 N.3   143  UNL143     -0.3437
    570 H           9.9912    1.9804    7.0339 H     143  UNL143      0.1146
    571 H           9.5113    3.5119    6.7630 H     143  UNL143      0.1146
    572 H           8.6754    2.2716    6.1213 H     143  UNL143      0.1146
    573 N           9.1588    5.1911   -0.2068 N.3   144  UNL144     -0.3437
    574 H           8.7171    4.3193   -0.4953 H     144  UNL144      0.1146
    575 H           9.8844    4.9312    0.4598 H     144  UNL144      0.1146
    576 H           9.6463    5.5444   -1.0289 H     144  UNL144      0.1146
    577 N           8.9869    4.9221    1.7600 N.3   145  UNL145     -0.3437
    578 H           8.5452    5.2127    2.6311 H     145  UNL145      0.1146
    579 H           9.7125    5.6117    1.5693 H     145  UNL145      0.1146
    580 H           9.4744    4.0520    1.9689 H     145  UNL145      0.1146
    581 N           9.6437    4.8297    6.3632 N.3   146  UNL146     -0.3437
    582 H           9.1255    4.2362    5.7170 H     146  UNL146      0.1146
    583 H           9.2615    5.7677    6.2510 H     146  UNL146      0.1146
    584 H           9.3758    4.5274    7.2987 H     146  UNL146      0.1146
    585 N           9.4600    7.3638    1.3564 N.3   147  UNL147     -0.3437
    586 H           9.7863    6.7287    2.0834 H     147  UNL147      0.1146
    587 H           9.6527    6.8991    0.4703 H     147  UNL147      0.1146
    588 H           8.4451    7.3927    1.4435 H     147  UNL147      0.1146
    589 N           9.4533    7.3638    3.5270 N.3   148  UNL148     -0.3437
    590 H           8.8142    6.7287    3.0510 H     148  UNL148      0.1146
    591 H           9.7168    6.8991    4.3947 H     148  UNL148      0.1146
    592 H          10.2972    7.3927    2.9565 H     148  UNL148      0.1146
    593 N           9.0750    7.1012    6.5070 N.3   149  UNL149     -0.3437
    594 H           9.2127    6.5076    7.3237 H     149  UNL149      0.1146
    595 H           9.3541    8.0391    6.7911 H     149  UNL149      0.1146
    596 H           9.7647    6.7988    5.8206 H     149  UNL149      0.1146
    597 N           9.1744    9.4613   -0.5788 N.3   150  UNL150     -0.3437
    598 H           8.7327    8.8633   -1.2757 H     150  UNL150      0.1146
    599 H           9.9000    8.8948   -0.1418 H     150  UNL150      0.1146
    600 H           9.6619   10.1881   -1.1007 H     150  UNL150      0.1146
    601 N           9.1744    9.2934    1.5547 N.3   151  UNL151     -0.3437
    602 H           8.7327    9.3532    0.6383 H     151  UNL151      0.1146
    603 H           9.9000    8.5829    1.4709 H     151  UNL151      0.1146
    604 H           9.6619   10.1780    1.6897 H     151  UNL151      0.1146
    605 N           9.1588    9.5621    3.5777 N.3   152  UNL152     -0.3437
    606 H           8.7171    8.6903    3.2892 H     152  UNL152      0.1146
    607 H           9.8844    9.3022    4.2443 H     152  UNL152      0.1146
    608 H           9.6463    9.9155    2.7556 H     152  UNL152      0.1146
    609 N           7.4400   10.7306    4.8570 N.3   153  UNL153     -0.3437
    610 H           6.9983   11.0212    5.7281 H     153  UNL153      0.1146
    611 H           8.1656   11.4202    4.6663 H     153  UNL153      0.1146
    612 H           7.9275    9.8605    5.0659 H     153  UNL153      0.1146
    613 N           9.0878   11.8269   -0.7668 N.3   154  UNL154     -0.3437
    614 H           9.6477   12.1497    0.0210 H     154  UNL154      0.1146
    615 H           9.7422   11.6745   -1.5328 H     154  UNL154      0.1146
    616 H           8.7413   10.9048   -0.5059 H     154  UNL154      0.1146
    617 N           9.1310   11.6350    1.0913 N.3   155  UNL155     -0.3437
    618 H           8.5095   12.3182    1.5217 H     155  UNL155      0.1146
    619 H          10.0372   11.7568    1.5412 H     155  UNL155      0.1146
    620 H           8.7913   10.7209    1.3869 H     155  UNL155      0.1146
    621 N           9.4600   11.8754    3.4691 N.3   156  UNL156     -0.3437
    622 H           9.7863   11.2403    4.1961 H     156  UNL156      0.1146
    623 H           9.6527   11.4107    2.5829 H     156  UNL156      0.1146
    624 H           8.4451   11.9044    3.5562 H     156  UNL156      0.1146
    625 N           9.3979   11.5972    6.8324 N.3   157  UNL157     -0.3437
    626 H           8.6421   11.0036    7.1713 H     157  UNL157      0.1146
    627 H           9.1932   12.5352    7.1741 H     157  UNL157      0.1146
    628 H          10.2359   11.2948    7.3272 H     157  UNL157      0.1146
    629 N           9.1588   14.4613   -0.0859 N.3   158  UNL158     -0.3437
    630 H           8.7171   14.5211   -1.0023 H     158  UNL158      0.1146
    631 H           9.8844   13.7508   -0.1697 H     158  UNL158      0.1146
    632 H           9.6463   15.3459    0.0491 H     158  UNL158      0.1146
    633 N           9.1588   13.6884    3.3493 N.3   159  UNL159     -0.3437
    634 H           8.7171   14.5501    3.6666 H     159  UNL159      0.1146
    635 H           9.8844   13.9703    2.6917 H     159  UNL159      0.1146
    636 H           9.6463   13.3079    4.1592 H     159  UNL159      0.1146
    637 N           9.5567   13.8530    6.2585 N.3   160  UNL160     -0.3437
    638 H          10.3818   13.2595    6.3308 H     160  UNL160      0.1146
    639 H           9.9020   14.7910    6.0599 H     160  UNL160      0.1146
    640 H           9.0660   13.5507    5.4182 H     160  UNL160      0.1146
    641 N           9.0419   16.0918    1.3970 N.3   161  UNL161     -0.3437
    642 H           9.4462   16.3824    2.2861 H     161  UNL161      0.1146
    643 H           9.3463   16.7814    0.7113 H     161  UNL161      0.1146
    644 H           9.5096   15.2217    1.1468 H     161  UNL161      0.1146
    645 N           9.1588   16.0918    3.6975 N.3   162  UNL162     -0.3437
    646 H           8.7171   16.3824    4.5686 H     162  UNL162      0.1146
    647 H           9.8844   16.7814    3.5068 H     162  UNL162      0.1146
    648 H           9.6463   15.2217    3.9064 H     162  UNL162      0.1146
    649 N           9.3667   16.1245    6.8324 N.3   163  UNL163     -0.3437
    650 H           8.6109   15.5309    7.1713 H     163  UNL163      0.1146
    651 H           9.1619   17.0624    7.1741 H     163  UNL163      0.1146
    652 H          10.2046   15.8221    7.3272 H     163  UNL163      0.1146
    653 N           9.3365   20.1020   -0.9475 N.3   164  UNL164     -0.3437
    654 H           8.5304   20.0522   -0.3261 H     164  UNL164      0.1146
    655 H          10.1552   20.1469   -0.3425 H     164  UNL164      0.1146
    656 H           9.3843   19.1996   -1.4184 H     164  UNL164      0.1146
    657 N           9.1588   18.3633    1.1317 N.3   165  UNL165     -0.3437
    658 H           8.7171   18.6539    2.0028 H     165  UNL165      0.1146
    659 H           9.8844   19.0529    0.9410 H     165  UNL165      0.1146
    660 H           9.6463   17.4932    1.3406 H     165  UNL165      0.1146
    661 N           9.5048   18.8008    3.6154 N.3   166  UNL166     -0.3437
    662 H           9.5849   19.0914    2.6420 H     166  UNL166      0.1146
    663 H           8.9049   19.4904    4.0659 H     166  UNL166      0.1146
    664 H           8.9745   17.9307    3.6060 H     166  UNL166      0.1146
    665 N           9.1588   18.3633    5.3570 N.3   167  UNL167     -0.3437
    666 H           8.7171   18.6539    6.2281 H     167  UNL167      0.1146
    667 H           9.8844   19.0529    5.1663 H     167  UNL167      0.1146
    668 H           9.6463   17.4932    5.5659 H     167  UNL167      0.1146
    669 N          11.4185    0.3248   -0.5354 N.3   168  UNL168     -0.3437
    670 H          10.9768    0.2223   -1.4480 H     168  UNL168      0.1146
    671 H          12.1441   -0.3894   -0.4928 H     168  UNL168      0.1146
    672 H          11.9060    1.2193   -0.5582 H     168  UNL168      0.1146
    673 N          11.1633    0.1604    3.5629 N.3   169  UNL169     -0.3437
    674 H          11.2911    0.9694    4.1693 H     169  UNL169      0.1146
    675 H          11.0682    0.5298    2.6180 H     169  UNL169      0.1146
    676 H          12.0479   -0.3452    3.5791 H     169  UNL169      0.1146
    677 N          11.3143    0.3167    6.8044 N.3   170  UNL170     -0.3437
    678 H          12.2765    0.6073    6.6370 H     170  UNL170      0.1146
    679 H          10.7273    1.0063    6.3372 H     170  UNL170      0.1146
    680 H          11.1899   -0.5534    6.2888 H     170  UNL170      0.1146
    681 N          11.2310    2.4249   -0.8760 N.3   171  UNL171     -0.3437
    682 H          10.7893    3.2866   -0.5587 H     171  UNL171      0.1146
    683 H          11.9566    2.7068   -1.5336 H     171  UNL171      0.1146
    684 H          11.7185    2.0444   -0.0661 H     171  UNL171      0.1146
    685 N          11.4562    0.7119    1.0696 N.3   172  UNL172     -0.3437
    686 H          10.8266    1.4882    1.2676 H     172  UNL172      0.1146
    687 H          12.2519    0.8288    1.6954 H     172  UNL172      0.1146
    688 H          10.9732   -0.1286    1.3836 H     172  UNL172      0.1146
    689 N          11.1841    2.7946    3.5777 N.3   173  UNL173     -0.3437
    690 H          10.7424    1.9228    3.2892 H     173  UNL173      0.1146
    691 H          11.9097    2.5347    4.2443 H     173  UNL173      0.1146
    692 H          11.6716    3.1480    2.7556 H     173  UNL173      0.1146
    693 N          11.5145    2.4620    5.9820 N.3   174  UNL174     -0.3437
    694 H          11.5460    1.9342    6.8531 H     174  UNL174      0.1146
    695 H          10.5277    2.6306    5.7913 H     174  UNL174      0.1146
    696 H          11.9198    3.3733    6.1909 H     174  UNL174      0.1146
    697 N          11.1970    2.6886    1.5557 N.3   175  UNL175     -0.3437
    698 H          12.1345    2.3054    1.6676 H     175  UNL175      0.1146
    699 H          11.2889    3.6961    1.6779 H     175  UNL175      0.1146
    700 H          10.9500    2.5458    0.5775 H     175  UNL175      0.1146
    701 N           9.5123    4.8127    3.4787 N.3   176  UNL176     -0.3437
    702 H           9.0706    5.1033    4.3498 H     176  UNL176      0.1146
    703 H          10.2379    5.5023    3.2880 H     176  UNL176      0.1146
    704 H           9.9998    3.9426    3.6876 H     176  UNL176      0.1146
    705 N          11.5914    4.6216    4.6204 N.3   177  UNL177     -0.3437
    706 H          10.9835    4.6236    3.8026 H     177  UNL177      0.1146
    707 H          12.0217    5.5447    4.6527 H     177  UNL177      0.1146
    708 H          10.9738    4.5711    5.4293 H     177  UNL177      0.1146
    709 N          11.3560    6.9209   -0.8604 N.3   178  UNL178     -0.3437
    710 H          10.9143    7.7826   -0.5431 H     178  UNL178      0.1146
    711 H          12.0816    7.2028   -1.5180 H     178  UNL178      0.1146
    712 H          11.8435    6.5404   -0.0505 H     178  UNL178      0.1146
    713 N          11.1841    5.3219    1.4650 N.3   179  UNL179     -0.3437
    714 H          10.7424    4.4501    1.1765 H     179  UNL179      0.1146
    715 H          11.9097    5.0620    2.1316 H     179  UNL179      0.1146
    716 H          11.6716    5.6753    0.6429 H     179  UNL179      0.1146
    717 N          11.6239    7.0685    3.5841 N.3   180  UNL180     -0.3437
    718 H          11.7040    7.3591    2.6107 H     180  UNL180      0.1146
    719 H          11.0240    7.7581    4.0347 H     180  UNL180      0.1146
    720 H          11.0936    6.1984    3.5748 H     180  UNL180      0.1146
    721 N          11.5260    6.3691    6.5070 N.3   181  UNL181     -0.3437
    722 H          11.9949    6.7581    7.3237 H     181  UNL181      0.1146
    723 H          10.5624    6.1983    6.7911 H     181  UNL181      0.1146
    724 H          11.4872    7.1212    5.8206 H     181  UNL181      0.1146
    725 N          11.5853    9.3878   -0.9359 N.3   182  UNL182     -0.3437
    726 H          10.7125    9.0673   -1.3529 H     182  UNL182      0.1146
    727 H          11.3870   10.3055   -0.5398 H     182  UNL182      0.1146
    728 H          11.7608    8.7719   -0.1433 H     182  UNL182      0.1146
    729 N          11.1841    7.6681    1.1317 N.3   183  UNL183     -0.3437
    730 H          10.7424    7.9587    2.0028 H     183  UNL183      0.1146
    731 H          11.9097    8.3577    0.9410 H     183  UNL183      0.1146
    732 H          11.6716    6.7980    1.3406 H     183  UNL183      0.1146
    733 N          11.1841    9.5621    3.5777 N.3   184  UNL184     -0.3437
    734 H          10.7424    8.6903    3.2892 H     184  UNL184      0.1146
    735 H          11.9097    9.3022    4.2443 H     184  UNL184      0.1146
    736 H          11.6716    9.9155    2.7556 H     184  UNL184      0.1146
    737 N           9.1470    9.3519    5.7979 N.3   185  UNL185     -0.3437
    738 H           9.2054   10.2682    5.3560 H     185  UNL185      0.1146
    739 H           9.0221    8.6821    5.0401 H     185  UNL185      0.1146
    740 H          10.0710    9.1678    6.1859 H     185  UNL185      0.1146
    741 N          11.1685   11.7328   -0.7038 N.3   186  UNL186     -0.3437
    742 H          10.7268   11.1348   -1.4007 H     186  UNL186      0.1146
    743 H          11.8941   11.1662   -0.2668 H     186  UNL186      0.1146
    744 H          11.6560   12.4596   -1.2257 H     186  UNL186      0.1146
    745 N          11.6514   11.9552    1.5133 N.3   187  UNL187     -0.3437
    746 H          11.4416   12.2458    0.5595 H     187  UNL187      0.1146
    747 H          11.2106   12.6448    2.1205 H     187  UNL187      0.1146
    748 H          11.1418   11.0851    1.6604 H     187  UNL187      0.1146
    749 N          11.1841   11.6114    3.2444 N.3   188  UNL188     -0.3437
    750 H          10.7424   11.9020    4.1155 H     188  UNL188      0.1146
    751 H          11.9097   12.3010    3.0537 H     188  UNL188      0.1146
    752 H          11.6716   10.7413    3.4533 H     188  UNL188      0.1146
    753 N          11.2987    9.4708    7.3200 N.3   189  UNL189     -0.3437
    754 H          12.2609    9.7614    7.1526 H     189  UNL189      0.1146
    755 H          10.7116   10.1604    6.8529 H     189  UNL189      0.1146
    756 H          11.1743    8.6007    6.8045 H     189  UNL189      0.1146
    757 N          11.1529   14.0581   -0.6131 N.3   190  UNL190     -0.3437
    758 H          10.7112   13.1863   -0.9016 H     190  UNL190      0.1146
    759 H          11.8785   13.7982    0.0535 H     190  UNL190      0.1146
    760 H          11.6404   14.4115   -1.4352 H     190  UNL190      0.1146
    761 N          10.8404   14.0737    1.6402 N.3   191  UNL191     -0.3437
    762 H          10.3987   13.2019    1.3517 H     191  UNL191      0.1146
    763 H          11.5660   13.8138    2.3068 H     191  UNL191      0.1146
    764 H          11.3279   14.4271    0.8181 H     191  UNL191      0.1146
    765 N          11.1685   11.2769    5.6904 N.3   192  UNL192     -0.3437
    766 H          10.7268   10.4051    5.4019 H     192  UNL192      0.1146
    767 H          11.8941   11.0169    6.3570 H     192  UNL192      0.1146
    768 H          11.6560   11.6302    4.8683 H     192  UNL192      0.1146
    769 N          11.3821   16.2521    1.6309 N.3   193  UNL193     -0.3437
    770 H          11.5851   16.9664    0.9331 H     193  UNL193      0.1146
    771 H          10.4523   15.8990    1.4092 H     193  UNL193      0.1146
    772 H          12.0260   15.4849    1.4430 H     193  UNL193      0.1146
    773 N          11.1841   16.1074    3.2600 N.3   194  UNL194     -0.3437
    774 H          10.7424   16.3980    4.1311 H     194  UNL194      0.1146
    775 H          11.9097   16.7970    3.0693 H     194  UNL194      0.1146
    776 H          11.6716   15.2373    3.4689 H     194  UNL194      0.1146
    777 N          11.7935   13.9359    5.7956 N.3   195  UNL195     -0.3437
    778 H          11.3518   13.9957    4.8793 H     195  UNL195      0.1146
    779 H          12.5191   13.2253    5.7118 H     195  UNL195      0.1146
    780 H          12.2810   14.8205    5.9307 H     195  UNL195      0.1146
    781 N          11.1841   18.3633   -0.9809 N.3   196  UNL196     -0.3437
    782 H          10.7424   18.6539   -0.1098 H     196  UNL196      0.1146
    783 H          11.9097   19.0529   -1.1716 H     196  UNL196      0.1146
    784 H          11.6716   17.4932   -0.7720 H     196  UNL196      0.1146
    785 N          11.6395   19.4570    1.4871 N.3   197  UNL197     -0.3437
    786 H          11.7196   19.7476    0.5137 H     197  UNL197      0.1146
    787 H          11.0396   20.1466    1.9376 H     197  UNL197      0.1146
    788 H          11.1092   18.5869    1.4777 H     197  UNL197      0.1146
    789 N          11.3618   19.7583    3.2778 N.3   198  UNL198     -0.3437
    790 H          10.5558   19.7084    3.8993 H     198  UNL198      0.1146
    791 H          12.1806   19.8031    3.8828 H     198  UNL198      0.1146
    792 H          11.4097   18.8559    2.8069 H     198  UNL198      0.1146
    793 N          11.1685   18.3789    5.3570 N.3   199  UNL199     -0.3437
    794 H          10.7268   18.6695    6.2281 H     199  UNL199      0.1146
    795 H          11.8941   19.0685    5.1663 H     199  UNL199      0.1146
    796 H          11.6560   17.5088    5.5659 H     199  UNL199      0.1146
    797 N          14.5450    0.2239    1.0962 N.3   200  UNL200     -0.3437
    798 H          13.6718   -0.1593    1.4553 H     200  UNL200      0.1146
    799 H          14.4052    1.2314    1.0343 H     200  UNL200      0.1146
    800 H          15.2373    0.0810    1.8302 H     200  UNL200      0.1146
    801 N          13.2095    0.8912    3.6622 N.3   201  UNL201     -0.3437
    802 H          12.7678    0.2932    2.9653 H     201  UNL201      0.1146
    803 H          13.9351    0.3246    4.0991 H     201  UNL201      0.1146
    804 H          13.6970    1.6180    3.1402 H     201  UNL201      0.1146
    805 N          13.2095   -0.9768    5.6904 N.3   202  UNL202     -0.3437
    806 H          12.7678   -1.8486    5.4019 H     202  UNL202      0.1146
    807 H          13.9351   -1.2367    6.3570 H     202  UNL202      0.1146
    808 H          13.6970   -0.6234    4.8683 H     202  UNL202      0.1146
    809 N          13.4161    2.7880   -0.9864 N.3   203  UNL203     -0.3437
    810 H          12.7946    3.1108   -0.2462 H     203  UNL203      0.1146
    811 H          14.3222    2.6356   -0.5458 H     203  UNL203      0.1146
    812 H          13.0764    1.8659   -1.2561 H     203  UNL203      0.1146
    813 N          14.1911    2.4641    1.5557 N.3   204  UNL204     -0.3437
    814 H          15.1287    2.0809    1.6676 H     204  UNL204      0.1146
    815 H          14.2830    3.4716    1.6779 H     204  UNL204      0.1146
    816 H          13.9441    2.3212    0.5775 H     204  UNL204      0.1146
    817 N          13.2095    2.7946    3.5777 N.3   205  UNL205     -0.3437
    818 H          12.7678    1.9228    3.2892 H     205  UNL205      0.1146
    819 H          13.9351    2.5347    4.2443 H     205  UNL205      0.1146
    820 H          13.6970    3.1480    2.7556 H     205  UNL205      0.1146
    821 N          13.4351    1.5501    5.5788 N.3   206  UNL206     -0.3437
    822 H          12.5252    1.2542    5.2280 H     206  UNL206      0.1146
    823 H          13.5222    1.1456    6.5100 H     206  UNL206      0.1146
    824 H          14.1269    1.0753    5.0006 H     206  UNL206      0.1146
    825 N          13.8501    5.0192    1.0744 N.3   207  UNL207     -0.3437
    826 H          13.4084    4.1474    0.7859 H     207  UNL207      0.1146
    827 H          14.5757    4.7593    1.7410 H     207  UNL207      0.1146
    828 H          14.3376    5.3726    0.2523 H     207  UNL207      0.1146
    829 N          13.0220    4.9098    3.3433 N.3   208  UNL208     -0.3437
    830 H          12.5803    4.0380    3.0548 H     208  UNL208      0.1146
    831 H          13.7476    4.6499    4.0099 H     208  UNL208      0.1146
    832 H          13.5095    5.2632    2.5212 H     208  UNL208      0.1146
    833 N          13.6570    3.0016    6.5070 N.3   209  UNL209     -0.3437
    834 H          13.7947    2.4081    7.3237 H     209  UNL209      0.1146
    835 H          13.9361    3.9396    6.7911 H     209  UNL209      0.1146
    836 H          14.3467    2.6993    5.8206 H     209  UNL209      0.1146
    837 N          13.4161    7.2996   -0.9864 N.3   210  UNL210     -0.3437
    838 H          12.7946    7.6224   -0.2462 H     210  UNL210      0.1146
    839 H          14.3222    7.1472   -0.5458 H     210  UNL210      0.1146
    840 H          13.0764    6.3775   -1.2561 H     210  UNL210      0.1146
    841 N          13.4161    7.2996    1.1263 N.3   211  UNL211     -0.3437
    842 H          12.7946    7.6224    1.8665 H     211  UNL211      0.1146
    843 H          14.3222    7.1472    1.5668 H     211  UNL211      0.1146
    844 H          13.0764    6.3775    0.8566 H     211  UNL211      0.1146
    845 N          13.4161    7.2996    3.2389 N.3   212  UNL212     -0.3437
    846 H          12.7946    7.6224    3.9791 H     212  UNL212      0.1146
    847 H          14.3222    7.1472    3.6795 H     212  UNL212      0.1146
    848 H          13.0764    6.3775    2.9692 H     212  UNL212      0.1146
    849 N          13.2095    5.3063    5.6904 N.3   213  UNL213     -0.3437
    850 H          12.7678    4.4345    5.4019 H     213  UNL213      0.1146
    851 H          13.9351    5.0464    6.3570 H     213  UNL213      0.1146
    852 H          13.6970    5.6596    4.8683 H     213  UNL213      0.1146
    853 N          13.2095    9.4613   -0.5788 N.3   214  UNL214     -0.3437
    854 H          12.7678    8.8633   -1.2757 H     214  UNL214      0.1146
    855 H          13.9351    8.8948   -0.1418 H     214  UNL214      0.1146
    856 H          13.6970   10.1881   -1.1007 H     214  UNL214      0.1146
    857 N          13.2095    9.2934    1.5547 N.3   215  UNL215     -0.3437
    858 H          12.7678    9.3532    0.6383 H     215  UNL215      0.1146
    859 H          13.9351    8.5829    1.4709 H     215  UNL215      0.1146
    860 H          13.6970   10.1780    1.6897 H     215  UNL215      0.1146
    861 N          13.2095    9.3091    3.6830 N.3   216  UNL216     -0.3437
    862 H          12.7678    9.3689    2.7666 H     216  UNL216      0.1146
    863 H          13.9351    8.5985    3.5992 H     216  UNL216      0.1146
    864 H          13.6970   10.1936    3.8180 H     216  UNL216      0.1146
    865 N          13.2251    7.5621    5.6904 N.3   217  UNL217     -0.3437
    866 H          12.7834    6.6903    5.4019 H     217  UNL217      0.1146
    867 H          13.9507    7.3022    6.3570 H     217  UNL217      0.1146
    868 H          13.7126    7.9155    4.8683 H     217  UNL217      0.1146
    869 N          13.2095   11.8023    1.8433 N.3   218  UNL218     -0.3437
    870 H          12.7678   10.9305    1.5548 H     218  UNL218      0.1146
    871 H          13.9351   11.5424    2.5099 H     218  UNL218      0.1146
    872 H          13.6970   12.1557    1.0212 H     218  UNL218      0.1146
    873 N          13.2095    9.6023    5.7345 N.3   219  UNL219     -0.3437
    874 H          12.7678   10.1263    4.9803 H     219  UNL219      0.1146
    875 H          13.9351    9.0368    5.2961 H     219  UNL219      0.1146
    876 H          13.6970   10.2904    6.3065 H     219  UNL219      0.1146
    877 N          13.1939   13.8363   -0.3203 N.3   220  UNL220     -0.3437
    878 H          12.7522   13.8961   -1.2367 H     220  UNL220      0.1146
    879 H          13.9195   13.1258   -0.4041 H     220  UNL220      0.1146
    880 H          13.6814   14.7209   -0.1853 H     220  UNL220      0.1146
    881 N          13.2095   14.0737    1.8433 N.3   221  UNL221     -0.3437
    882 H          12.7678   13.2019    1.5548 H     221  UNL221      0.1146
    883 H          13.9351   13.8138    2.5099 H     221  UNL221      0.1146
    884 H          13.6970   14.4271    1.0212 H     221  UNL221      0.1146
    885 N          13.2944   12.1536    6.6135 N.3   222  UNL222     -0.3437
    886 H          14.2502   12.1271    6.9657 H     222  UNL222      0.1146
    887 H          13.2797   11.5463    5.7953 H     222  UNL222      0.1146
    888 H          12.7226   11.6897    7.3179 H     222  UNL222      0.1146
    889 N          14.0294   16.0146   -1.2508 N.3   223  UNL223     -0.3437
    890 H          13.1562   15.6314   -0.8917 H     223  UNL223      0.1146
    891 H          13.8896   17.0221   -1.3127 H     223  UNL223      0.1146
    892 H          14.7217   15.8718   -0.5168 H     223  UNL223      0.1146
    893 N          13.2564   15.9286    1.0804 N.3   224  UNL224     -0.3437
    894 H          12.8147   16.7903    1.3977 H     224  UNL224      0.1146
    895 H          13.9820   16.2105    0.4228 H     224  UNL224      0.1146
    896 H          13.7439   15.5481    1.8903 H     224  UNL224      0.1146
    897 N          13.2095   16.3296    3.5777 N.3   225  UNL225     -0.3437
    898 H          12.7678   15.4578    3.2892 H     225  UNL225      0.1146
    899 H          13.9351   16.0696    4.2443 H     225  UNL225      0.1146
    900 H          13.6970   16.6829    2.7556 H     225  UNL225      0.1146
    901 N          11.2893   16.2176    5.3570 N.3   226  UNL226     -0.3437
    902 H          11.8080   16.1153    6.2281 H     226  UNL226      0.1146
    903 H          10.8777   15.3051    5.1663 H     226  UNL226      0.1146
    904 H          10.5094   16.8393    5.5659 H     226  UNL226      0.1146
    905 N          13.3396   19.4570   -0.4711 N.3   227  UNL227     -0.3437
    906 H          14.3019   19.7476   -0.6385 H     227  UNL227      0.1146
    907 H          12.7526   20.1466   -0.9383 H     227  UNL227      0.1146
    908 H          13.2153   18.5869   -0.9866 H     227  UNL227      0.1146
    909 N          13.2095   18.3633    1.1317 N.3   228  UNL228     -0.3437
    910 H          12.7678   18.6539    2.0028 H     228  UNL228      0.1146
    911 H          13.9351   19.0529    0.9410 H     228  UNL228      0.1146
    912 H          13.6970   17.4932    1.3406 H     228  UNL228      0.1146
    913 N          13.2095   18.3633    3.2444 N.3   229  UNL229     -0.3437
    914 H          12.7678   18.6539    4.1155 H     229  UNL229      0.1146
    915 H          13.9351   19.0529    3.0537 H     229  UNL229      0.1146
    916 H          13.6970   17.4932    3.4533 H     229  UNL229      0.1146
    917 N          13.6959   19.4414    6.6048 N.3   230  UNL230     -0.3437
    918 H          13.2623   19.7320    5.7296 H     230  UNL230      0.1146
    919 H          13.4144   20.1310    7.3002 H     230  UNL230      0.1146
    920 H          13.2368   18.5713    6.8703 H     230  UNL230      0.1146
    921 N          17.0566    0.6917    1.2813 N.3   231  UNL231     -0.3437
    922 H          16.4758    0.9823    0.4961 H     231  UNL231      0.1146
    923 H          16.9020    1.3813    2.0154 H     231  UNL231      0.1146
    924 H          16.6514   -0.1784    1.6235 H     231  UNL231      0.1146
    925 N          16.2995    0.2062    3.2444 N.3   232  UNL232     -0.3437
    926 H          16.3311   -0.3216    4.1155 H     232  UNL232      0.1146
    927 H          15.3128    0.3748    3.0537 H     232  UNL232      0.1146
    928 H          16.7049    1.1175    3.4533 H     232  UNL232      0.1146
    929 N          16.6433    0.8000    5.3570 N.3   233  UNL233     -0.3437
    930 H          16.6748    0.2722    6.2281 H     233  UNL233      0.1146
    931 H          15.6566    0.9686    5.1663 H     233  UNL233      0.1146
    932 H          17.0486    1.7112    5.5659 H     233  UNL233      0.1146
    933 N          16.7531    2.3814   -0.1132 N.3   234  UNL234     -0.3437
    934 H          16.8343    2.3834   -1.1289 H     234  UNL234      0.1146
    935 H          17.0555    3.3046    0.1946 H     234  UNL234      0.1146
    936 H          15.7555    2.3309    0.0887 H     234  UNL234      0.1146
    937 N          16.7484    2.8344    3.4590 N.3   235  UNL235     -0.3437
    938 H          15.7948    3.0786    3.7224 H     235  UNL235      0.1146
    939 H          17.0514    2.1262    4.1261 H     235  UNL235      0.1146
    940 H          16.6787    2.3610    2.5593 H     235  UNL235      0.1146
    941 N          16.0569    2.4173    6.3257 N.3   236  UNL236     -0.3437
    942 H          15.8620    3.0665    5.5648 H     236  UNL236      0.1146
    943 H          16.1458    2.9876    7.1655 H     236  UNL236      0.1146
    944 H          15.2086    1.8663    6.4489 H     236  UNL236      0.1146
    945 N          16.2887    4.8440   -0.5166 N.3   237  UNL237     -0.3437
    946 H          16.9024    5.1346   -1.2764 H     237  UNL237      0.1146
    947 H          15.5393    5.5336   -0.4815 H     237  UNL237      0.1146
    948 H          15.8555    3.9739   -0.8226 H     237  UNL237      0.1146
    949 N          16.3286    5.0505    1.4650 N.3   238  UNL238     -0.3437
    950 H          15.8869    4.1787    1.1765 H     238  UNL238      0.1146
    951 H          17.0542    4.7905    2.1316 H     238  UNL238      0.1146
    952 H          16.8161    5.4038    0.6429 H     238  UNL238      0.1146
    953 N          15.4265    4.7409    3.1944 N.3   239  UNL239     -0.3437
    954 H          14.8744    5.5945    3.2640 H     239  UNL239      0.1146
    955 H          16.3625    4.9848    3.5153 H     239  UNL239      0.1146
    956 H          15.0474    4.1034    3.8931 H     239  UNL239      0.1146
    957 N          16.6433    4.7178    6.4352 N.3   240  UNL240     -0.3437
    958 H          16.6748    4.1901    7.3063 H     240  UNL240      0.1146
    959 H          15.6566    4.8865    6.2445 H     240  UNL240      0.1146
    960 H          17.0486    5.6291    6.6441 H     240  UNL240      0.1146
    961 N          16.3286    6.9344   -0.6191 N.3   241  UNL241     -0.3437
    962 H          15.8869    7.4584   -1.3733 H     241  UNL241      0.1146
    963 H          17.0542    6.3689   -1.0575 H     241  UNL241      0.1146
    964 H          16.8161    7.6225   -0.0471 H     241  UNL241      0.1146
    965 N          16.3286    7.2837    1.2093 N.3   242  UNL242     -0.3437
    966 H          15.8869    6.7851    1.9804 H     242  UNL242      0.1146
    967 H          17.0542    7.8634    1.6286 H     242  UNL242      0.1146
    968 H          16.8161    6.5770    0.6604 H     242  UNL242      0.1146
    969 N          16.3130    7.3063    3.5777 N.3   243  UNL243     -0.3437
    970 H          15.8713    6.4345    3.2892 H     243  UNL243      0.1146
    971 H          17.0386    7.0464    4.2443 H     243  UNL243      0.1146
    972 H          16.8005    7.6596    2.7556 H     243  UNL243      0.1146
    973 N          16.1026    6.8257    6.4289 N.3   244  UNL244     -0.3437
    974 H          16.7117    6.8096    7.2456 H     244  UNL244      0.1146
    975 H          15.2651    7.3319    6.7130 H     244  UNL244      0.1146
    976 H          16.5689    7.4171    5.7424 H     244  UNL244      0.1146
    977 N          15.8199    9.3556    1.6117 N.3   245  UNL245     -0.3437
    978 H          16.4337    9.6462    0.8519 H     245  UNL245      0.1146
    979 H          15.0705   10.0452    1.6468 H     245  UNL245      0.1146
    980 H          15.3867    8.4855    1.3057 H     245  UNL245      0.1146
    981 N          16.6433    9.2295    3.2444 N.3   246  UNL246     -0.3437
    982 H          16.6748    8.7017    4.1155 H     246  UNL246      0.1146
    983 H          15.6566    9.3981    3.0537 H     246  UNL246      0.1146
    984 H          17.0486   10.1408    3.4533 H     246  UNL246      0.1146
    985 N          16.6433    9.2295    6.4508 N.3   247  UNL247     -0.3437
    986 H          16.6748    8.7017    7.3219 H     247  UNL247      0.1146
    987 H          15.6566    9.3981    6.2601 H     247  UNL247      0.1146
    988 H          17.0486   10.1408    6.6597 H     247  UNL247      0.1146
    989 N          16.7531   11.4047   -0.3788 N.3   248  UNL248     -0.3437
    990 H          16.8343   11.4066   -1.3946 H     248  UNL248      0.1146
    991 H          17.0555   12.3278   -0.0710 H     248  UNL248      0.1146
    992 H          15.7555   11.3542   -0.1769 H     248  UNL248      0.1146
    993 N          16.7484   11.8576    3.4590 N.3   249  UNL249     -0.3437
    994 H          15.7948   12.1019    3.7224 H     249  UNL249      0.1146
    995 H          17.0514   11.1495    4.1261 H     249  UNL249      0.1146
    996 H          16.6787   11.3843    2.5593 H     249  UNL249      0.1146
    997 N          16.0786   11.5958    5.3570 N.3   250  UNL250     -0.3437
    998 H          15.6369   11.8864    6.2281 H     250  UNL250      0.1146
    999 H          16.8042   12.2854    5.1663 H     250  UNL250      0.1146
   1000 H          16.5661   10.7257    5.5659 H     250  UNL250      0.1146
   1001 N          15.6255   13.7175   -0.6191 N.3   251  UNL251     -0.3437
   1002 H          15.1838   14.2415   -1.3733 H     251  UNL251      0.1146
   1003 H          16.3511   13.1520   -1.0575 H     251  UNL251      0.1146
   1004 H          16.1130   14.4056   -0.0471 H     251  UNL251      0.1146
   1005 N          16.3286   13.6173    1.0848 N.3   252  UNL252     -0.3437
   1006 H          15.8869   13.9079    1.9559 H     252  UNL252      0.1146
   1007 H          17.0542   14.3069    0.8941 H     252  UNL252      0.1146
   1008 H          16.8161   12.7472    1.2937 H     252  UNL252      0.1146
   1009 N          15.2349   14.1206    3.8121 N.3   253  UNL253     -0.3437
   1010 H          14.7932   13.2488    3.5236 H     253  UNL253      0.1146
   1011 H          15.9605   13.8607    4.4787 H     253  UNL253      0.1146
   1012 H          15.7224   14.4740    2.9900 H     253  UNL253      0.1146
   1013 N          14.4084   13.9775    5.3570 N.3   254  UNL254     -0.3437
   1014 H          14.9271   13.8751    6.2281 H     254  UNL254      0.1146
   1015 H          13.9969   13.0649    5.1663 H     254  UNL254      0.1146
   1016 H          13.6285   14.5991    5.5659 H     254  UNL254      0.1146
   1017 N          16.3286   15.9733   -0.6035 N.3   255  UNL255     -0.3437
   1018 H          15.8869   16.4973   -1.3576 H     255  UNL255      0.1146
   1019 H          17.0542   15.4079   -1.0419 H     255  UNL255      0.1146
   1020 H          16.8161   16.6614   -0.0315 H     255  UNL255      0.1146
   1021 N          15.4265   16.0200    1.0817 N.3   256  UNL256     -0.3437
   1022 H          14.8744   16.8736    1.1513 H     256  UNL256      0.1146
   1023 H          16.3625   16.2639    1.4026 H     256  UNL256      0.1146
   1024 H          15.0474   15.3825    1.7805 H     256  UNL256      0.1146
   1025 N          16.3866   16.2246    3.3581 N.3   257  UNL257     -0.3437
   1026 H          16.8373   16.9326    3.9359 H     257  UNL257      0.1146
   1027 H          17.0580   15.9879    2.6290 H     257  UNL257      0.1146
   1028 H          16.3040   15.3948    3.9438 H     257  UNL257      0.1146
   1029 N          16.7910   14.1856    6.5847 N.3   258  UNL258     -0.3437
   1030 H          16.2102   14.4762    5.7995 H     258  UNL258      0.1146
   1031 H          16.6364   14.8752    7.3188 H     258  UNL258      0.1146
   1032 H          16.3858   13.3155    6.9269 H     258  UNL258      0.1146
   1033 N          15.2973   18.3705   -0.4941 N.3   259  UNL259     -0.3437
   1034 H          15.7052   19.2889   -0.6631 H     259  UNL259      0.1146
   1035 H          14.6525   18.2034   -1.2653 H     259  UNL259      0.1146
   1036 H          16.0558   17.7003   -0.6120 H     259  UNL259      0.1146
   1037 N          16.7438   19.6800    1.4637 N.3   260  UNL260     -0.3437
   1038 H          16.9036   18.7710    1.8956 H     260  UNL260      0.1146
   1039 H          16.8720   19.5415    0.4622 H     260  UNL260      0.1146
   1040 H          15.7539   19.8831    1.5946 H     260  UNL260      0.1146
   1041 N          15.3650   19.4570    3.7543 N.3   261  UNL261     -0.3437
   1042 H          16.3272   19.7476    3.5868 H     261  UNL261      0.1146
   1043 H          14.7780   20.1466    3.2871 H     261  UNL261      0.1146
   1044 H          15.2406   18.5869    3.2387 H     261  UNL261      0.1146
   1045 N          16.2349   18.3633    6.3570 N.3   262  UNL262     -0.3437
   1046 H          15.7932   18.6539    7.2281 H     262  UNL262      0.1146
   1047 H          16.9605   19.0529    6.1663 H     262  UNL262      0.1146
   1048 H          16.7224   17.4932    6.5659 H     262  UNL262      0.1146
@<TRIPOS>BOND
     1     1     2    1
     2     1     3    1
     3     1     4    1
     4     5     6    1
     5     5     7    1
     6     5     8    1
     7     9    10    1
     8     9    11    1
     9     9    12    1
    10    13    14    1
    11    13    15    1
    12    13    16    1
    13    17    18    1
    14    17    19    1
    15    17    20    1
    16    21    22    1
    17    21    23    1
    18    21    24    1
    19    25    26    1
    20    25    27    1
    21    25    28    1
    22    29    30    1
    23    29    31    1
    24    29    32    1
    25    33    34    1
    26    33    35    1
    27    33    36    1
    28    37    38    1
    29    37    39    1
    30    37    40    1
    31    41    42    1
    32    41    43    1
    33    41    44    1
    34    45    46    1
    35    45    47    1
    36    45    48    1
    37    49    50    1
    38    49    51    1
    39    49    52    1
    40    53    54    1
    41    53    55    1
    42    53    56    1
    43    57    58    1
    44    57    59    1
    45    57    60    1
    46    61    62    1
    47    61    63    1
    48    61    64    1
    49    65    66    1
    50    65    67    1
    51    65    68    1
    52    69    70    1
    53    69    71    1
    54    69    72    1
    55    73    74    1
    56    73    75    1
    57    73    76    1
    58    77    78    1
    59    77    79    1
    60    77    80    1
    61    81    82    1
    62    81    83    1
    63    81    84    1
    64    85    86    1
    65    85    87    1
    66    85    88    1
    67    89    90    1
    68    89    91    1
    69    89    92    1
    70    93    94    1
    71    93    95    1
    72    93    96    1
    73    97    98    1
    74    97    99    1
    75    97   100    1
    76   101   102    1
    77   101   103    1
    78   101   104    1
    79   105   106    1
    80   105   107    1
    81   105   108    1
    82   109   110    1
    83   109   111    1
    84   109   112    1
    85   113   114    1
    86   113   115    1
    87   113   116    1
    88   117   118    1
    89   117   119    1
    90   117   120    1
    91   121   122    1
    92   121   123    1
    93   121   124    1
    94   125   126    1
    95   125   127    1
    96   125   128    1
    97   129   130    1
    98   129   131    1
    99   129   132    1
   100   133   134    1
   101   133   135    1
   102   133   136    1
   103   137   138    1
   104   137   139    1
   105   137   140    1
   106   141   142    1
   107   141   143    1
   108   141   144    1
   109   145   146    1
   110   145   147    1
   111   145   148    1
   112   149   150    1
   113   149   151    1
   114   149   152    1
   115   153   154    1
   116   153   155    1
   117   153   156    1
   118   157   158    1
   119   157   159    1
   120   157   160    1
   121   161   162    1
   122   161   163    1
   123   161   164    1
   124   165   166    1
   125   165   167    1
   126   165   168    1
   127   169   170    1
   128   169   171    1
   129   169   172    1
   130   173   174    1
   131   173   175    1
   132   173   176    1
   133   177   178    1
   134   177   179    1
   135   177   180    1
   136   181   182    1
   137   181   183    1
   138   181   184    1
   139   185   186    1
   140   185   187    1
   141   185   188    1
   142   189   190    1
   143   189   191    1
   144   189   192    1
   145   193   194    1
   146   193   195    1
   147   193   196    1
   148   197   198    1
   149   197   199    1
   150   197   200    1
   151   201   202    1
   152   201   203    1
   153   201   204    1
   154   205   206    1
   155   205   207    1
   156   205   208    1
   157   209   210    1
   158   209   211    1
   159   209   212    1
   160   213   214    1
   161   213   215    1
   162   213   216    1
   163   217   218    1
   164   217   219    1
   165   217   220    1
   166   221   222    1
   167   221   223    1
   168   221   224    1
   169   225   226    1
   170   225   227    1
   171   225   228    1
   172   229   230    1
   173   229   231    1
   174   229   232    1
   175   233   234    1
   176   233   235    1
   177   233   236    1
   178   237   238    1
   179   237   239    1
   180   237   240    1
   181   241   242    1
   182   241   243    1
   183   241   244    1
   184   245   246    1
   185   245   247    1
   186   245   248    1
   187   249   250    1
   188   249   251    1
   189   249   252    1
   190   253   254    1
   191   253   255    1
   192   253   256    1
   193   257   258    1
   194   257   259    1
   195   257   260    1
   196   261   262    1
   197   261   263    1
   198   261   264    1
   199   265   266    1
   200   265   267    1
   201   265   268    1
   202   269   270    1
   203   269   271    1
   204   269   272    1
   205   273   274    1
   206   273   275    1
   207   273   276    1
   208   277   278    1
   209   277   279    1
   210   277   280    1
   211   281   282    1
   212   281   283    1
   213   281   284    1
   214   285   286    1
   215   285   287    1
   216   285   288    1
   217   289   290    1
   218   289   291    1
   219   289   292    1
   220   293   294    1
   221   293   295    1
   222   293   296    1
   223   297   298    1
   224   297   299    1
   225   297   300    1
   226   301   302    1
   227   301   303    1
   228   301   304    1
   229   305   306    1
   230   305   307    1
   231   305   308    1
   232   309   310    1
   233   309   311    1
   234   309   312    1
   235   313   314    1
   236   313   315    1
   237   313   316    1
   238   317   318    1
   239   317   319    1
   240   317   320    1
   241   321   322    1
   242   321   323    1
   243   321   324    1
   244   325   326    1
   245   325   327    1
   246   325   328    1
   247   329   330    1
   248   329   331    1
   249   329   332    1
   250   333   334    1
   251   333   335    1
   252   333   336    1
   253   337   338    1
   254   337   339    1
   255   337   340    1
   256   341   342    1
   257   341   343    1
   258   341   344    1
   259   345   346    1
   260   345   347    1
   261   345   348    1
   262   349   350    1
   263   349   351    1
   264   349   352    1
   265   353   354    1
   266   353   355    1
   267   353   356    1
   268   357   358    1
   269   357   359    1
   270   357   360    1
   271   361   362    1
   272   361   363    1
   273   361   364    1
   274   365   366    1
   275   365   367    1
   276   365   368    1
   277   369   370    1
   278   369   371    1
   279   369   372    1
   280   373   374    1
   281   373   375    1
   282   373   376    1
   283   377   378    1
   284   377   379    1
   285   377   380    1
   286   381   382    1
   287   381   383    1
   288   381   384    1
   289   385   386    1
   290   385   387    1
   291   385   388    1
   292   389   390    1
   293   389   391    1
   294   389   392    1
   295   393   394    1
   296   393   395    1
   297   393   396    1
   298   397   398    1
   299   397   399    1
   300   397   400    1
   301   401   402    1
   302   401   403    1
   303   401   404    1
   304   405   406    1
   305   405   407    1
   306   405   408    1
   307   409   410    1
   308   409   411    1
   309   409   412    1
   310   413   414    1
   311   413   415    1
   312   413   416    1
   313   417   418    1
   314   417   419    1
   315   417   420    1
   316   421   422    1
   317   421   423    1
   318   421   424    1
   319   425   426    1
   320   425   427    1
   321   425   428    1
   322   429   430    1
   323   429   431    1
   324   429   432    1
   325   433   434    1
   326   433   435    1
   327   433   436    1
   328   437   438    1
   329   437   439    1
   330   437   440    1
   331   441   442    1
   332   441   443    1
   333   441   444    1
   334   445   446    1
   335   445   447    1
   336   445   448    1
   337   449   450    1
   338   449   451    1
   339   449   452    1
   340   453   454    1
   341   453   455    1
   342   453   456    1
   343   457   458    1
   344   457   459    1
   345   457   460    1
   346   461   462    1
   347   461   463    1
   348   461   464    1
   349   465   466    1
   350   465   467    1
   351   465   468    1
   352   469   470    1
   353   469   471    1
   354   469   472    1
   355   473   474    1
   356   473   475    1
   357   473   476    1
   358   477   478    1
   359   477   479    1
   360   477   480    1
   361   481   482    1
   362   481   483    1
   363   481   484    1
   364   485   486    1
   365   485   487    1
   366   485   488    1
   367   489   490    1
   368   489   491    1
   369   489   492    1
   370   493   494    1
   371   493   495    1
   372   493   496    1
   373   497   498    1
   374   497   499    1
   375   497   500    1
   376   501   502    1
   377   501   503    1
   378   501   504    1
   379   505   506    1
   380   505   507    1
   381   505   508    1
   382   509   510    1
   383   509   511    1
   384   509   512    1
   385   513   514    1
   386   513   515    1
   387   513   516    1
   388   517   518    1
   389   517   519    1
   390   517   520    1
   391   521   522    1
   392   521   523    1
   393   521   524    1
   394   525   526    1
   395   525   527    1
   396   525   528    1
   397   529   530    1
   398   529   531    1
   399   529   532    1
   400   533   534    1
   401   533   535    1
   402   533   536    1
   403   537   538    1
   404   537   539    1
   405   537   540    1
   406   541   542    1
   407   541   543    1
   408   541   544    1
   409   545   546    1
   410   545   547    1
   411   545   548    1
   412   549   550    1
   413   549   551    1
   414   549   552    1
   415   553   554    1
   416   553   555    1
   417   553   556    1
   418   557   558    1
   419   557   559    1
   420   557   560    1
   421   561   562    1
   422   561   563    1
   423   561   564    1
   424   565   566    1
   425   565   567    1
   426   565   568    1
   427   569   570    1
   428   569   571    1
   429   569   572    1
   430   573   574    1
   431   573   575    1
   432   573   576    1
   433   577   578    1
   434   577   579    1
   435   577   580    1
   436   581   582    1
   437   581   583    1
   438   581   584    1
   439   585   586    1
   440   585   587    1
   441   585   588    1
   442   589   590    1
   443   589   591    1
   444   589   592    1
   445   593   594    1
   446   593   595    1
   447   593   596    1
   448   597   598    1
   449   597   599    1
   450   597   600    1
   451   601   602    1
   452   601   603    1
   453   601   604    1
   454   605   606    1
   455   605   607    1
   456   605   608    1
   457   609   610    1
   458   609   611    1
   459   609   612    1
   460   613   614    1
   461   613   615    1
   462   613   616    1
   463   617   618    1
   464   617   619    1
   465   617   620    1
   466   621   622    1
   467   621   623    1
   468   621   624    1
   469   625   626    1
   470   625   627    1
   471   625   628    1
   472   629   630    1
   473   629   631    1
   474   629   632    1
   475   633   634    1
   476   633   635    1
   477   633   636    1
   478   637   638    1
   479   637   639    1
   480   637   640    1
   481   641   642    1
   482   641   643    1
   483   641   644    1
   484   645   646    1
   485   645   647    1
   486   645   648    1
   487   649   650    1
   488   649   651    1
   489   649   652    1
   490   653   654    1
   491   653   655    1
   492   653   656    1
   493   657   658    1
   494   657   659    1
   495   657   660    1
   496   661   662    1
   497   661   663    1
   498   661   664    1
   499   665   666    1
   500   665   667    1
   501   665   668    1
   502   669   670    1
   503   669   671    1
   504   669   672    1
   505   673   674    1
   506   673   675    1
   507   673   676    1
   508   677   678    1
   509   677   679    1
   510   677   680    1
   511   681   682    1
   512   681   683    1
   513   681   684    1
   514   685   686    1
   515   685   687    1
   516   685   688    1
   517   689   690    1
   518   689   691    1
   519   689   692    1
   520   693   694    1
   521   693   695    1
   522   693   696    1
   523   697   698    1
   524   697   699    1
   525   697   700    1
   526   701   702    1
   527   701   703    1
   528   701   704    1
   529   705   706    1
   530   705   707    1
   531   705   708    1
   532   709   710    1
   533   709   711    1
   534   709   712    1
   535   713   714    1
   536   713   715    1
   537   713   716    1
   538   717   718    1
   539   717   719    1
   540   717   720    1
   541   721   722    1
   542   721   723    1
   543   721   724    1
   544   725   726    1
   545   725   727    1
   546   725   728    1
   547   729   730    1
   548   729   731    1
   549   729   732    1
   550   733   734    1
   551   733   735    1
   552   733   736    1
   553   737   738    1
   554   737   739    1
   555   737   740    1
   556   741   742    1
   557   741   743    1
   558   741   744    1
   559   745   746    1
   560   745   747    1
   561   745   748    1
   562   749   750    1
   563   749   751    1
   564   749   752    1
   565   753   754    1
   566   753   755    1
   567   753   756    1
   568   757   758    1
   569   757   759    1
   570   757   760    1
   571   761   762    1
   572   761   763    1
   573   761   764    1
   574   765   766    1
   575   765   767    1
   576   765   768    1
   577   769   770    1
   578   769   771    1
   579   769   772    1
   580   773   774    1
   581   773   775    1
   582   773   776    1
   583   777   778    1
   584   777   779    1
   585   777   780    1
   586   781   782    1
   587   781   783    1
   588   781   784    1
   589   785   786    1
   590   785   787    1
   591   785   788    1
   592   789   790    1
   593   789   791    1
   594   789   792    1
   595   793   794    1
   596   793   795    1
   597   793   796    1
   598   797   798    1
   599   797   799    1
   600   797   800    1
   601   801   802    1
   602   801   803    1
   603   801   804    1
   604   805   806    1
   605   805   807    1
   606   805   808    1
   607   809   810    1
   608   809   811    1
   609   809   812    1
   610   813   814    1
   611   813   815    1
   612   813   816    1
   613   817   818    1
   614   817   819    1
   615   817   820    1
   616   821   822    1
   617   821   823    1
   618   821   824    1
   619   825   826    1
   620   825   827    1
   621   825   828    1
   622   829   830    1
   623   829   831    1
   624   829   832    1
   625   833   834    1
   626   833   835    1
   627   833   836    1
   628   837   838    1
   629   837   839    1
   630   837   840    1
   631   841   842    1
   632   841   843    1
   633   841   844    1
   634   845   846    1
   635   845   847    1
   636   845   848    1
   637   849   850    1
   638   849   851    1
   639   849   852    1
   640   853   854    1
   641   853   855    1
   642   853   856    1
   643   857   858    1
   644   857   859    1
   645   857   860    1
   646   861   862    1
   647   861   863    1
   648   861   864    1
   649   865   866    1
   650   865   867    1
   651   865   868    1
   652   869   870    1
   653   869   871    1
   654   869   872    1
   655   873   874    1
   656   873   875    1
   657   873   876    1
   658   877   878    1
   659   877   879    1
   660   877   880    1
   661   881   882    1
   662   881   883    1
   663   881   884    1
   664   885   886    1
   665   885   887    1
   666   885   888    1
   667   889   890    1
   668   889   891    1
   669   889   892    1
   670   893   894    1
   671   893   895    1
   672   893   896    1
   673   897   898    1
   674   897   899    1
   675   897   900    1
   676   901   902    1
   677   901   903    1
   678   901   904    1
   679   905   906    1
   680   905   907    1
   681   905   908    1
   682   909   910    1
   683   909   911    1
   684   909   912    1
   685   913   914    1
   686   913   915    1
   687   913   916    1
   688   917   918    1
   689   917   919    1
   690   917   920    1
   691   921   922    1
   692   921   923    1
   693   921   924    1
   694   925   926    1
   695   925   927    1
   696   925   928    1
   697   929   930    1
   698   929   931    1
   699   929   932    1
   700   933   934    1
   701   933   935    1
   702   933   936    1
   703   937   938    1
   704   937   939    1
   705   937   940    1
   706   941   942    1
   707   941   943    1
   708   941   944    1
   709   945   946    1
   710   945   947    1
   711   945   948    1
   712   949   950    1
   713   949   951    1
   714   949   952    1
   715   953   954    1
   716   953   955    1
   717   953   956    1
   718   957   958    1
   719   957   959    1
   720   957   960    1
   721   961   962    1
   722   961   963    1
   723   961   964    1
   724   965   966    1
   725   965   967    1
   726   965   968    1
   727   969   970    1
   728   969   971    1
   729   969   972    1
   730   973   974    1
   731   973   975    1
   732   973   976    1
   733   977   978    1
   734   977   979    1
   735   977   980    1
   736   981   982    1
   737   981   983    1
   738   981   984    1
   739   985   986    1
   740   985   987    1
   741   985   988    1
   742   989   990    1
   743   989   991    1
   744   989   992    1
   745   993   994    1
   746   993   995    1
   747   993   996    1
   748   997   998    1
   749   997   999    1
   750   997  1000    1
   751  1001  1002    1
   752  1001  1003    1
   753  1001  1004    1
   754  1005  1006    1
   755  1005  1007    1
   756  1005  1008    1
   757  1009  1010    1
   758  1009  1011    1
   759  1009  1012    1
   760  1013  1014    1
   761  1013  1015    1
   762  1013  1016    1
   763  1017  1018    1
   764  1017  1019    1
   765  1017  1020    1
   766  1021  1022    1
   767  1021  1023    1
   768  1021  1024    1
   769  1025  1026    1
   770  1025  1027    1
   771  1025  1028    1
   772  1029  1030    1
   773  1029  1031    1
   774  1029  1032    1
   775  1033  1034    1
   776  1033  1035    1
   777  1033  1036    1
   778  1037  1038    1
   779  1037  1039    1
   780  1037  1040    1
   781  1041  1042    1
   782  1041  1043    1
   783  1041  1044    1
   784  1045  1046    1
   785  1045  1047    1
   786  1045  1048    1
