@<TRIPOS>MOLECULE
*****
 124 93 0 0 0
SMALL
GASTEIGER

@<TRIPOS>ATOM
      1 N          -0.7226    4.7331    0.9280 N.3     1  UNL1       -0.3437
      2 H           0.2210    4.9512    0.6112 H       1  UNL1        0.1146
      3 H          -0.7139    4.8535    1.9399 H       1  UNL1        0.1146
      4 H          -1.3198    5.4733    0.5623 H       1  UNL1        0.1146
      5 N          -0.2238    2.5496   -1.0108 N.3     2  UNL2       -0.3437
      6 H           0.1497    2.4348   -0.0697 H       2  UNL2        0.1146
      7 H          -0.6238    1.6478   -1.2662 H       2  UNL2        0.1146
      8 H          -1.0106    3.1914   -0.9244 H       2  UNL2        0.1146
      9 N           0.0906   10.1483   -0.6614 N.3     3  UNL3       -0.3437
     10 H           0.6851    9.4103   -1.0361 H       3  UNL3        0.1146
     11 H          -0.7063   10.2149   -1.2929 H       3  UNL3        0.1146
     12 H          -0.2780    9.7920    0.2193 H       3  UNL3        0.1146
     13 N          -0.3734   13.4856    0.1524 N.3     4  UNL4       -0.3437
     14 H          -0.4327   12.6501   -0.4279 H       4  UNL4        0.1146
     15 H          -0.4040   13.1600    1.1176 H       4  UNL4        0.1146
     16 H           0.5641   13.8594    0.0118 H       4  UNL4        0.1146
     17 N          -0.2120   15.4746    2.3758 N.3     5  UNL5       -0.3437
     18 H           0.5148   14.7639    2.3053 H       5  UNL5        0.1146
     19 H           0.0474   16.2079    1.7175 H       5  UNL5        0.1146
     20 H          -1.0588   15.0484    2.0019 H       5  UNL5        0.1146
     21 N           0.5163   -1.1238    1.0444 N.3     6  UNL6       -0.3437
     22 H          -0.4087   -1.1326    0.6169 H       6  UNL6        0.1146
     23 H           1.1687   -1.3885    0.3077 H       6  UNL6        0.1146
     24 H           0.7168   -0.1483    1.2599 H       6  UNL6        0.1146
     25 N           2.6870    4.2628    0.0853 N.3     7  UNL7       -0.3437
     26 H           3.4085    3.5542   -0.0405 H       7  UNL7        0.1146
     27 H           2.7876    4.9080   -0.6971 H       7  UNL7        0.1146
     28 H           1.7975    3.7862   -0.0564 H       7  UNL7        0.1146
     29 N           1.5325    6.9349   -0.1222 N.3     8  UNL8       -0.3437
     30 H           0.8567    7.4786    0.4126 H       8  UNL8        0.1146
     31 H           1.8089    7.5237   -0.9067 H       8  UNL8        0.1146
     32 H           2.3574    6.8510    0.4702 H       8  UNL8        0.1146
     33 N           2.2989    9.3258    1.3038 N.3     9  UNL9       -0.3437
     34 H           2.9274    8.6441    1.7264 H       9  UNL9        0.1146
     35 H           2.3458    9.1658    0.2985 H       9  UNL9        0.1146
     36 H           1.3585    9.0548    1.5877 H       9  UNL9        0.1146
     37 N           2.5950   11.7836   -1.0746 N.3    10  UNL10      -0.3437
     38 H           2.8467   11.1037   -0.3586 H      10  UNL10       0.1146
     39 H           1.6802   12.1455   -0.8091 H      10  UNL10       0.1146
     40 H           3.2463   12.5598   -0.9663 H      10  UNL10       0.1146
     41 N           1.9747   12.3228    1.5708 N.3    11  UNL11      -0.3437
     42 H           1.8560   12.9021    2.4007 H      11  UNL11       0.1146
     43 H           2.7952   11.7447    1.7468 H      11  UNL11       0.1146
     44 H           1.1797   11.6855    1.5571 H      11  UNL11       0.1146
     45 N           2.3092   15.5681    0.9113 N.3    12  UNL12      -0.3437
     46 H           1.5762   16.0350    0.3793 H      12  UNL12       0.1146
     47 H           2.6700   14.8319    0.3062 H      12  UNL12       0.1146
     48 H           3.0628   16.2473    1.0071 H      12  UNL12       0.1146
     49 N          -0.1998   18.4822   -0.7726 N.3    13  UNL13      -0.3437
     50 H          -0.2000   17.4737   -0.6267 H      13  UNL13       0.1146
     51 H           0.0830   18.8944    0.1154 H      13  UNL13       0.1146
     52 H           0.5599   18.6715   -1.4247 H      13  UNL13       0.1146
     53 N           3.3671   -1.1869   -1.4539 N.3    14  UNL14      -0.3437
     54 H           3.6850   -0.2234   -1.5484 H      14  UNL14       0.1146
     55 H           4.2102   -1.7574   -1.4060 H      14  UNL14       0.1146
     56 H           2.9325   -1.2504   -0.5344 H      14  UNL14       0.1146
     57 N           4.7578   -1.1259    1.3232 N.3    15  UNL15      -0.3437
     58 H           3.7793   -0.8773    1.4615 H      15  UNL15       0.1146
     59 H           4.9908   -0.8330    0.3754 H      15  UNL15       0.1146
     60 H           5.2920   -0.5194    1.9438 H      15  UNL15       0.1146
     61 N           2.2606    1.1753   -0.0445 N.3    16  UNL16      -0.3437
     62 H           2.4371    1.8206   -0.8131 H      16  UNL16       0.1146
     63 H           3.1700    0.8011    0.2226 H      16  UNL16       0.1146
     64 H           1.9521    1.7494    0.7389 H      16  UNL16       0.1146
     65 N           4.2112    2.3353    2.1218 N.3    17  UNL17      -0.3437
     66 H           3.2791    2.7307    2.0071 H      17  UNL17       0.1146
     67 H           4.4827    2.5308    3.0844 H      17  UNL17       0.1146
     68 H           4.0968    1.3245    2.0621 H      17  UNL17       0.1146
     69 N           4.8120    5.2302    1.9836 N.3    18  UNL18      -0.3437
     70 H           4.2471    6.0473    1.7565 H      18  UNL18       0.1146
     71 H           4.2478    4.6660    2.6175 H      18  UNL18       0.1146
     72 H           4.8878    4.6926    1.1213 H      18  UNL18       0.1146
     73 N           4.8586    7.0041   -0.4126 N.3    19  UNL19      -0.3437
     74 H           4.2989    7.5982    0.1974 H      19  UNL19       0.1146
     75 H           5.7277    6.8262    0.0889 H      19  UNL19       0.1146
     76 H           4.3721    6.1098   -0.4573 H      19  UNL19       0.1146
     77 N           5.2507    9.6950    1.0075 N.3    20  UNL20      -0.3437
     78 H           4.4663   10.3396    0.9201 H      20  UNL20       0.1146
     79 H           5.4150    9.3240    0.0728 H      20  UNL20       0.1146
     80 H           6.0629   10.2693    1.2285 H      20  UNL20       0.1146
     81 N           5.1197   12.7640    1.1613 N.3    21  UNL21      -0.3437
     82 H           5.8615   13.4452    1.0059 H      21  UNL21       0.1146
     83 H           5.5060   12.0683    1.7978 H      21  UNL21       0.1146
     84 H           4.3951   13.2525    1.6854 H      21  UNL21       0.1146
     85 N           5.0643   15.0983   -0.3619 N.3    22  UNL22      -0.3437
     86 H           6.0669   14.9189   -0.3943 H      22  UNL22       0.1146
     87 H           4.6158   14.2493   -0.7032 H      22  UNL22       0.1146
     88 H           4.8228   15.1658    0.6258 H      22  UNL22       0.1146
     89 N           2.6006   18.4752    0.5830 N.3    23  UNL23      -0.3437
     90 H           2.6423   19.4903    0.6618 H      23  UNL23       0.1146
     91 H           3.4980   18.1863    0.1962 H      23  UNL23       0.1146
     92 H           2.5790   18.1201    1.5379 H      23  UNL23       0.1146
     93 N           5.7799    1.5030   -0.1980 N.3    24  UNL24      -0.3437
     94 H           4.8434    1.8964   -0.2794 H      24  UNL24       0.1146
     95 H           5.8557    1.1535    0.7562 H      24  UNL24       0.1146
     96 H           5.7925    0.6810   -0.8000 H      24  UNL24       0.1146
     97 N           7.8255   -1.1664    2.3031 N.3    25  UNL25      -0.3437
     98 H           7.3813   -1.0274    1.3966 H      25  UNL25       0.1146
     99 H           8.4488   -1.9647    2.1910 H      25  UNL25       0.1146
    100 H           8.4284   -0.3576    2.4473 H      25  UNL25       0.1146
    101 N           7.3931    3.1564    1.3776 N.3    26  UNL26      -0.3437
    102 H           7.8096    2.8528    2.2566 H      26  UNL26       0.1146
    103 H           6.7386    3.8993    1.6187 H      26  UNL26       0.1146
    104 H           8.1427    3.6026    0.8509 H      26  UNL26       0.1146
    105 N           8.0530    5.7408    2.5689 N.3    27  UNL27      -0.3437
    106 H           8.1886    5.5755    1.5726 H      27  UNL27       0.1146
    107 H           7.0780    6.0164    2.6777 H      27  UNL27       0.1146
    108 H           8.1394    4.8306    3.0188 H      27  UNL27       0.1146
    109 N           8.1510   12.4182    0.1846 N.3    28  UNL28      -0.3437
    110 H           7.5741   13.1736   -0.1826 H      28  UNL28       0.1146
    111 H           7.5387   11.8600    0.7779 H      28  UNL28       0.1146
    112 H           8.3827   11.8283   -0.6134 H      28  UNL28       0.1146
    113 N           8.1644   15.3674    1.1635 N.3    29  UNL29      -0.3437
    114 H           7.7034   16.2736    1.2313 H      29  UNL29       0.1146
    115 H           8.6718   15.2441    2.0386 H      29  UNL29       0.1146
    116 H           7.4194   14.6721    1.1706 H      29  UNL29       0.1146
    117 N           7.7891   18.1018   -0.9476 N.3    30  UNL30      -0.3437
    118 H           8.3089   18.9311   -1.2311 H      30  UNL30       0.1146
    119 H           8.0523   17.9226    0.0204 H      30  UNL30       0.1146
    120 H           6.8087   18.3789   -0.9253 H      30  UNL30       0.1146
    121 N           5.9047   18.4823    1.3111 N.3    31  UNL31      -0.3437
    122 H           4.9983   18.7140    1.7149 H      31  UNL31       0.1146
    123 H           6.5249   18.2999    2.0988 H      31  UNL31       0.1146
    124 H           5.7811   17.5882    0.8381 H      31  UNL31       0.1146
@<TRIPOS>BOND
     1     1     2    1
     2     1     3    1
     3     1     4    1
     4     5     6    1
     5     5     7    1
     6     5     8    1
     7     9    10    1
     8     9    11    1
     9     9    12    1
    10    13    14    1
    11    13    15    1
    12    13    16    1
    13    17    18    1
    14    17    19    1
    15    17    20    1
    16    21    22    1
    17    21    23    1
    18    21    24    1
    19    25    26    1
    20    25    27    1
    21    25    28    1
    22    29    30    1
    23    29    31    1
    24    29    32    1
    25    33    34    1
    26    33    35    1
    27    33    36    1
    28    37    38    1
    29    37    39    1
    30    37    40    1
    31    41    42    1
    32    41    43    1
    33    41    44    1
    34    45    46    1
    35    45    47    1
    36    45    48    1
    37    49    50    1
    38    49    51    1
    39    49    52    1
    40    53    54    1
    41    53    55    1
    42    53    56    1
    43    57    58    1
    44    57    59    1
    45    57    60    1
    46    61    62    1
    47    61    63    1
    48    61    64    1
    49    65    66    1
    50    65    67    1
    51    65    68    1
    52    69    70    1
    53    69    71    1
    54    69    72    1
    55    73    74    1
    56    73    75    1
    57    73    76    1
    58    77    78    1
    59    77    79    1
    60    77    80    1
    61    81    82    1
    62    81    83    1
    63    81    84    1
    64    85    86    1
    65    85    87    1
    66    85    88    1
    67    89    90    1
    68    89    91    1
    69    89    92    1
    70    93    94    1
    71    93    95    1
    72    93    96    1
    73    97    98    1
    74    97    99    1
    75    97   100    1
    76   101   102    1
    77   101   103    1
    78   101   104    1
    79   105   106    1
    80   105   107    1
    81   105   108    1
    82   109   110    1
    83   109   111    1
    84   109   112    1
    85   113   114    1
    86   113   115    1
    87   113   116    1
    88   117   118    1
    89   117   119    1
    90   117   120    1
    91   121   122    1
    92   121   123    1
    93   121   124    1
