@<TRIPOS>MOLECULE
*****
 576 504 0 0 0
SMALL
GASTEIGER

@<TRIPOS>ATOM
      1 CL          0.0083   -1.7567   -1.1000 Cl      1  UNL1       -0.1257
      2 C          -1.6412   -1.0965   -1.1000 C.3     1  UNL1        0.0198
      3 C          -1.6070    0.4173   -1.1000 C.3     1  UNL1       -0.0517
      4 H          -2.1556   -1.4732   -1.9886 H       1  UNL1        0.0427
      5 H          -2.1556   -1.4732   -0.2115 H       1  UNL1        0.0427
      6 H          -2.6259    0.8176   -1.1000 H       1  UNL1        0.0241
      7 H          -1.0940    0.8023   -0.2126 H       1  UNL1        0.0241
      8 H          -1.0940    0.8023   -1.9874 H       1  UNL1        0.0241
      9 CL          0.4945   -0.8338    2.3487 Cl      2  UNL2       -0.1257
     10 C          -1.0480   -1.7155    2.3487 C.3     2  UNL2        0.0198
     11 C          -2.2125   -0.7477    2.3487 C.3     2  UNL2       -0.0517
     12 H          -1.0726   -2.3526    1.4601 H       2  UNL2        0.0427
     13 H          -1.0726   -2.3526    3.2372 H       2  UNL2        0.0427
     14 H          -3.1594   -1.2970    2.3487 H       2  UNL2        0.0241
     15 H          -2.1952   -0.1065    3.2361 H       2  UNL2        0.0241
     16 H          -2.1952   -0.1065    1.4613 H       2  UNL2        0.0241
     17 CL          1.0165    1.5342    5.4564 Cl      3  UNL3       -0.1257
     18 C          -0.5260    0.6525    5.4564 C.3     3  UNL3        0.0198
     19 C          -1.6905    1.6203    5.4564 C.3     3  UNL3       -0.0517
     20 H          -0.5506    0.0154    4.5678 H       3  UNL3        0.0427
     21 H          -0.5506    0.0154    6.3449 H       3  UNL3        0.0427
     22 H          -2.6374    1.0710    5.4564 H       3  UNL3        0.0241
     23 H          -1.6732    2.2615    6.3438 H       3  UNL3        0.0241
     24 H          -1.6732    2.2615    4.5690 H       3  UNL3        0.0241
     25 CL         -1.0953    0.7973    8.8540 Cl      4  UNL4       -0.1257
     26 C          -1.3634   -0.9591    8.8540 C.3     4  UNL4        0.0198
     27 C          -2.8454   -1.2697    8.8540 C.3     4  UNL4       -0.0517
     28 H          -0.8797   -1.3744    7.9654 H       4  UNL4        0.0427
     29 H          -0.8797   -1.3744    9.7425 H       4  UNL4        0.0427
     30 H          -3.0037   -2.3529    8.8540 H       4  UNL4        0.0241
     31 H          -3.3369   -0.8575    9.7414 H       4  UNL4        0.0241
     32 H          -3.3369   -0.8575    7.9666 H       4  UNL4        0.0241
     33 CL          0.5185    1.1022   12.4787 Cl      5  UNL5       -0.1257
     34 C          -1.0240    0.2205   12.4787 C.3     5  UNL5        0.0198
     35 C          -2.1885    1.1883   12.4787 C.3     5  UNL5       -0.0517
     36 H          -1.0486   -0.4166   11.5901 H       5  UNL5        0.0427
     37 H          -1.0486   -0.4166   13.3672 H       5  UNL5        0.0427
     38 H          -3.1354    0.6390   12.4787 H       5  UNL5        0.0241
     39 H          -2.1712    1.8295   13.3661 H       5  UNL5        0.0241
     40 H          -2.1712    1.8295   11.5913 H       5  UNL5        0.0241
     41 CL          0.3165   -0.8338   15.8594 Cl      6  UNL6       -0.1257
     42 C          -1.2260   -1.7155   15.8594 C.3     6  UNL6        0.0198
     43 C          -2.3905   -0.7477   15.8594 C.3     6  UNL6       -0.0517
     44 H          -1.2506   -2.3526   14.9708 H       6  UNL6        0.0427
     45 H          -1.2506   -2.3526   16.7479 H       6  UNL6        0.0427
     46 H          -3.3374   -1.2970   15.8594 H       6  UNL6        0.0241
     47 H          -2.3732   -0.1065   16.7468 H       6  UNL6        0.0241
     48 H          -2.3732   -0.1065   14.9720 H       6  UNL6        0.0241
     49 CL          0.8375    2.1162   18.9161 Cl      7  UNL7       -0.1257
     50 C          -0.7050    1.2345   18.9161 C.3     7  UNL7        0.0198
     51 C          -1.8695    2.2023   18.9161 C.3     7  UNL7       -0.0517
     52 H          -0.7296    0.5974   18.0275 H       7  UNL7        0.0427
     53 H          -0.7296    0.5974   19.8046 H       7  UNL7        0.0427
     54 H          -2.8164    1.6530   18.9161 H       7  UNL7        0.0241
     55 H          -1.8522    2.8435   19.8035 H       7  UNL7        0.0241
     56 H          -1.8522    2.8435   18.0287 H       7  UNL7        0.0241
     57 CL          0.3295   -0.8338   21.9897 Cl      8  UNL8       -0.1257
     58 C          -1.2130   -1.7155   21.9897 C.3     8  UNL8        0.0198
     59 C          -2.3775   -0.7477   21.9897 C.3     8  UNL8       -0.0517
     60 H          -1.2376   -2.3526   21.1011 H       8  UNL8        0.0427
     61 H          -1.2376   -2.3526   22.8782 H       8  UNL8        0.0427
     62 H          -3.3244   -1.2970   21.9897 H       8  UNL8        0.0241
     63 H          -2.3602   -0.1065   22.8771 H       8  UNL8        0.0241
     64 H          -2.3602   -0.1065   21.1023 H       8  UNL8        0.0241
     65 CL         -0.7027   -1.5487   25.5764 Cl      9  UNL9       -0.1257
     66 C          -2.3522   -0.8885   25.5764 C.3     9  UNL9        0.0198
     67 C          -2.3180    0.6253   25.5764 C.3     9  UNL9       -0.0517
     68 H          -2.8666   -1.2652   24.6878 H       9  UNL9        0.0427
     69 H          -2.8666   -1.2652   26.4649 H       9  UNL9        0.0427
     70 H          -3.3369    1.0256   25.5764 H       9  UNL9        0.0241
     71 H          -1.8050    1.0103   26.4638 H       9  UNL9        0.0241
     72 H          -1.8050    1.0103   24.6890 H       9  UNL9        0.0241
     73 CL          0.3165   -0.8338   29.1561 Cl     10  UNL10      -0.1257
     74 C          -1.2260   -1.7155   29.1561 C.3    10  UNL10       0.0198
     75 C          -2.3905   -0.7477   29.1561 C.3    10  UNL10      -0.0517
     76 H          -1.2506   -2.3526   28.2675 H      10  UNL10       0.0427
     77 H          -1.2506   -2.3526   30.0446 H      10  UNL10       0.0427
     78 H          -3.3374   -1.2970   29.1561 H      10  UNL10       0.0241
     79 H          -2.3732   -0.1065   30.0435 H      10  UNL10       0.0241
     80 H          -2.3732   -0.1065   28.2687 H      10  UNL10       0.0241
     81 CL         -3.2398    1.8747   32.7378 Cl     11  UNL11      -0.1257
     82 C          -2.0307    0.5729   32.7378 C.3    11  UNL11       0.0198
     83 C          -2.7086   -0.7810   32.7378 C.3    11  UNL11      -0.0517
     84 H          -1.4047    0.6937   31.8492 H      11  UNL11       0.0427
     85 H          -1.4047    0.6937   33.6263 H      11  UNL11       0.0427
     86 H          -1.9585   -1.5784   32.7378 H      11  UNL11       0.0241
     87 H          -3.3370   -0.9099   33.6252 H      11  UNL11       0.0241
     88 H          -3.3370   -0.9099   31.8504 H      11  UNL11       0.0241
     89 CL         -2.6034   -0.8318   37.8472 Cl     12  UNL12      -0.1257
     90 C          -1.1980   -1.7135   37.2115 C.3    12  UNL12       0.0198
     91 C          -0.1370   -0.7457   36.7316 C.3    12  UNL12      -0.0517
     92 H          -0.8093   -2.3506   38.0110 H      12  UNL12       0.0427
     93 H          -1.5417   -2.3506   36.3918 H      12  UNL12       0.0427
     94 H           0.7258   -1.2950   36.3413 H      12  UNL12       0.0241
     95 H          -0.5184   -0.1045   35.9302 H      12  UNL12       0.0241
     96 H           0.2130   -0.1045   37.5472 H      12  UNL12       0.0241
     97 CL         -2.3727    5.0388   -1.1000 Cl     13  UNL13      -0.1257
     98 C          -1.6950    6.6812   -1.1000 C.3    13  UNL13       0.0198
     99 C          -0.1817    6.6309   -1.1000 C.3    13  UNL13      -0.0517
    100 H          -2.0663    7.1995   -1.9886 H      13  UNL13       0.0427
    101 H          -2.0663    7.1995   -0.2115 H      13  UNL13       0.0427
    102 H           0.2294    7.6455   -1.1000 H      13  UNL13       0.0241
    103 H           0.1979    6.1138   -0.2126 H      13  UNL13       0.0241
    104 H           0.1979    6.1138   -1.9874 H      13  UNL13       0.0241
    105 CL         -1.0953    6.6212    2.2697 Cl     14  UNL14      -0.1257
    106 C          -1.3634    4.8648    2.2697 C.3    14  UNL14       0.0198
    107 C          -2.8454    4.5542    2.2697 C.3    14  UNL14      -0.0517
    108 H          -0.8797    4.4495    1.3811 H      14  UNL14       0.0427
    109 H          -0.8797    4.4495    3.1582 H      14  UNL14       0.0427
    110 H          -3.0037    3.4710    2.2697 H      14  UNL14       0.0241
    111 H          -3.3369    4.9663    3.1571 H      14  UNL14       0.0241
    112 H          -3.3369    4.9663    1.3823 H      14  UNL14       0.0241
    113 CL         -3.0581    7.6455    5.0592 Cl     15  UNL15      -0.1257
    114 C          -2.8414    6.0388    5.7859 C.3    15  UNL15       0.0198
    115 C          -1.3691    5.7165    5.9317 C.3    15  UNL15      -0.0517
    116 H          -3.3371    6.0396    6.7608 H      15  UNL15       0.0427
    117 H          -3.3371    5.3073    5.1416 H      15  UNL15       0.0427
    118 H          -1.2425    4.7258    6.3798 H      15  UNL15       0.0241
    119 H          -0.8658    5.7130    4.9593 H      15  UNL15       0.0241
    120 H          -0.8658    6.4444    6.5764 H      15  UNL15       0.0241
    121 CL          0.6415    6.9191    9.4000 Cl     16  UNL16      -0.1257
    122 C          -0.9010    6.0374    9.4000 C.3    16  UNL16       0.0198
    123 C          -2.0655    7.0052    9.4000 C.3    16  UNL16      -0.0517
    124 H          -0.9256    5.4003    8.5114 H      16  UNL16       0.0427
    125 H          -0.9256    5.4003   10.2885 H      16  UNL16       0.0427
    126 H          -3.0124    6.4559    9.4000 H      16  UNL16       0.0241
    127 H          -2.0482    7.6464   10.2874 H      16  UNL16       0.0241
    128 H          -2.0482    7.6464    8.5126 H      16  UNL16       0.0241
    129 CL          0.3165    5.3251   12.6747 Cl     17  UNL17      -0.1257
    130 C          -1.2260    4.4434   12.6747 C.3    17  UNL17       0.0198
    131 C          -2.3905    5.4112   12.6747 C.3    17  UNL17      -0.0517
    132 H          -1.2506    3.8063   11.7861 H      17  UNL17       0.0427
    133 H          -1.2506    3.8063   13.5632 H      17  UNL17       0.0427
    134 H          -3.3374    4.8619   12.6747 H      17  UNL17       0.0241
    135 H          -2.3732    6.0524   13.5621 H      17  UNL17       0.0241
    136 H          -2.3732    6.0524   11.7873 H      17  UNL17       0.0241
    137 CL         -3.0487    7.3733   16.0514 Cl     18  UNL18      -0.1257
    138 C          -1.5693    6.3894   16.0514 C.3    18  UNL18       0.0198
    139 C          -1.9127    4.9147   16.0514 C.3    18  UNL18      -0.0517
    140 H          -0.9887    6.6528   15.1628 H      18  UNL18       0.0427
    141 H          -0.9887    6.6528   16.9399 H      18  UNL18       0.0427
    142 H          -0.9974    4.3143   16.0514 H      18  UNL18       0.0241
    143 H          -2.4937    4.6428   16.9388 H      18  UNL18       0.0241
    144 H          -2.4937    4.6428   15.1640 H      18  UNL18       0.0241
    145 CL          0.4125    6.9191   19.6291 Cl     19  UNL19      -0.1257
    146 C          -1.1300    6.0374   19.6291 C.3    19  UNL19       0.0198
    147 C          -2.2945    7.0052   19.6291 C.3    19  UNL19      -0.0517
    148 H          -1.1546    5.4003   18.7405 H      19  UNL19       0.0427
    149 H          -1.1546    5.4003   20.5176 H      19  UNL19       0.0427
    150 H          -3.2414    6.4559   19.6291 H      19  UNL19       0.0241
    151 H          -2.2772    7.6464   20.5165 H      19  UNL19       0.0241
    152 H          -2.2772    7.6464   18.7417 H      19  UNL19       0.0241
    153 CL          0.3165    4.1667   22.7685 Cl     20  UNL20      -0.1257
    154 C          -1.2260    3.6186   23.4592 C.3    20  UNL20       0.0198
    155 C          -2.3905    4.2202   22.7011 C.3    20  UNL20      -0.0517
    156 H          -1.2506    2.5265   23.4059 H      20  UNL20       0.0427
    157 H          -1.2506    3.9186   24.5105 H      20  UNL20       0.0427
    158 H          -3.3374    3.8787   23.1313 H      20  UNL20       0.0241
    159 H          -2.3732    5.3139   22.7504 H      20  UNL20       0.0241
    160 H          -2.3732    3.9236   21.6472 H      20  UNL20       0.0241
    161 CL         -3.3370    7.4657   26.6988 Cl     21  UNL21      -0.1257
    162 C          -2.6901    6.4012   25.4318 C.3    21  UNL21       0.0198
    163 C          -1.1995    6.6130   25.2707 C.3    21  UNL21      -0.0517
    164 H          -2.9070    5.3677   25.7161 H      21  UNL21       0.0427
    165 H          -3.2172    6.6262   24.5004 H      21  UNL21       0.0427
    166 H          -0.8074    5.9545   24.4890 H      21  UNL21       0.0241
    167 H          -0.9743    7.6458   24.9852 H      21  UNL21       0.0241
    168 H          -0.6645    6.3889   26.1994 H      21  UNL21       0.0241
    169 CL         -0.5580    3.2711   30.9756 Cl     22  UNL22      -0.1257
    170 C          -0.8442    3.4715   29.2336 C.3    22  UNL22       0.0198
    171 C          -2.3064    3.2516   28.9073 C.3    22  UNL22      -0.0517
    172 H          -0.5317    4.4816   28.9542 H      22  UNL22       0.0427
    173 H          -0.2154    2.7509   28.7032 H      22  UNL22       0.0427
    174 H          -2.4759    3.3764   27.8330 H      22  UNL22       0.0241
    175 H          -2.6268    2.2417   29.1837 H      22  UNL22       0.0241
    176 H          -2.9427    3.9701   29.4343 H      22  UNL22       0.0241
    177 CL         -2.8279    6.9191   33.8672 Cl     23  UNL23      -0.1257
    178 C          -2.4774    6.0374   32.3651 C.3    23  UNL23       0.0198
    179 C          -2.2128    7.0052   31.2310 C.3    23  UNL23      -0.0517
    180 H          -1.6065    5.4003   32.5430 H      23  UNL23       0.0427
    181 H          -3.3371    5.4003   32.1393 H      23  UNL23       0.0427
    182 H          -1.9977    6.4559   30.3089 H      23  UNL23       0.0241
    183 H          -3.0810    7.6464   31.0463 H      23  UNL23       0.0241
    184 H          -1.3526    7.6464   31.4495 H      23  UNL23       0.0241
    185 CL         -1.5432    5.6293   37.1225 Cl     24  UNL24      -0.1257
    186 C          -1.3943    3.8589   37.1225 C.3    24  UNL24       0.0198
    187 C          -2.7630    3.2112   37.1225 C.3    24  UNL24      -0.0517
    188 H          -0.8270    3.5679   36.2339 H      24  UNL24       0.0427
    189 H          -0.8270    3.5679   38.0110 H      24  UNL24       0.0427
    190 H          -2.6643    2.1210   37.1225 H      24  UNL24       0.0241
    191 H          -3.3371    3.4973   38.0099 H      24  UNL24       0.0241
    192 H          -3.3371    3.4973   36.2351 H      24  UNL24       0.0241
    193 CL          4.9574   -2.3532   -1.1000 Cl     25  UNL25      -0.1257
    194 C           3.4417   -1.4262   -1.1000 C.3    25  UNL25       0.0198
    195 C           3.7287    0.0605   -1.1000 C.3    25  UNL25      -0.0517
    196 H           2.8715   -1.7116   -1.9886 H      25  UNL25       0.0427
    197 H           2.8715   -1.7116   -0.2115 H      25  UNL25       0.0427
    198 H           2.7912    0.6256   -1.1000 H      25  UNL25       0.0241
    199 H           4.2990    0.3542   -0.2126 H      25  UNL25       0.0241
    200 H           4.2990    0.3542   -1.9874 H      25  UNL25       0.0241
    201 CL          8.7875   -1.3706    3.7274 Cl     26  UNL26      -0.1257
    202 C           7.9229   -0.0269    2.9502 C.3    26  UNL26       0.0198
    203 C           6.4996   -0.4288    2.6256 C.3    26  UNL26      -0.0517
    204 H           7.9391    0.8258    3.6349 H      26  UNL26       0.0427
    205 H           8.4671    0.2436    2.0410 H      26  UNL26       0.0427
    206 H           5.9727    0.4030    2.1472 H      26  UNL26       0.0241
    207 H           6.4751   -1.2819    1.9396 H      26  UNL26       0.0241
    208 H           5.9479   -0.7005    3.5315 H      26  UNL26       0.0241
    209 CL          3.7623   -2.3528    6.2494 Cl     27  UNL27      -0.1257
    210 C           4.7305   -0.8631    6.2494 C.3    27  UNL27       0.0198
    211 C           6.2087   -1.1908    6.2494 C.3    27  UNL27      -0.0517
    212 H           4.4608   -0.2853    5.3608 H      27  UNL27       0.0427
    213 H           4.4608   -0.2853    7.1379 H      27  UNL27       0.0427
    214 H           6.7994   -0.2691    6.2494 H      27  UNL27       0.0241
    215 H           6.4867   -1.7689    7.1368 H      27  UNL27       0.0241
    216 H           6.4867   -1.7689    5.3620 H      27  UNL27       0.0241
    217 CL          1.8649   -1.5017   10.5888 Cl     28  UNL28      -0.1257
    218 C           2.5767   -0.7438    9.1481 C.3    28  UNL28       0.0198
    219 C           3.1133    0.6320    9.4825 C.3    28  UNL28      -0.0517
    220 H           3.3767   -1.3948    8.7845 H      28  UNL28       0.0427
    221 H           1.7999   -0.6816    8.3808 H      28  UNL28       0.0427
    222 H           3.5503    1.0934    8.5911 H      28  UNL28       0.0241
    223 H           2.3177    1.2903    9.8467 H      28  UNL28       0.0241
    224 H           3.8925    0.5780   10.2499 H      28  UNL28       0.0241
    225 CL          5.2353   -2.3534   10.7188 Cl     29  UNL29      -0.1257
    226 C           5.8830   -0.9144   11.5350 C.3    29  UNL29       0.0198
    227 C           6.7905   -1.3162   12.6786 C.3    29  UNL29      -0.0517
    228 H           6.4298   -0.3237   10.7946 H      29  UNL29       0.0427
    229 H           5.0377   -0.3237   11.8992 H      29  UNL29       0.0427
    230 H           7.1860   -0.4255   13.1771 H      29  UNL29       0.0241
    231 H           6.2498   -1.9076   13.4249 H      29  UNL29       0.0241
    232 H           7.6401   -1.9076   12.3216 H      29  UNL29       0.0241
    233 CL          2.8244    1.2594   15.1394 Cl     30  UNL30      -0.1257
    234 C           4.3038    0.2755   15.1394 C.3    30  UNL30       0.0198
    235 C           3.9604   -1.1992   15.1394 C.3    30  UNL30      -0.0517
    236 H           4.8844    0.5390   14.2508 H      30  UNL30       0.0427
    237 H           4.8844    0.5390   16.0279 H      30  UNL30       0.0427
    238 H           4.8757   -1.7996   15.1394 H      30  UNL30       0.0241
    239 H           3.3794   -1.4711   16.0268 H      30  UNL30       0.0241
    240 H           3.3794   -1.4711   14.2520 H      30  UNL30       0.0241
    241 CL          2.2971   -2.3494   18.7701 Cl     31  UNL31      -0.1257
    242 C           3.3392   -0.9104   18.7701 C.3    31  UNL31       0.0198
    243 C           4.7990   -1.3122   18.7701 C.3    31  UNL31      -0.0517
    244 H           3.0990   -0.3197   17.8815 H      31  UNL31       0.0427
    245 H           3.0990   -0.3197   19.6586 H      31  UNL31       0.0427
    246 H           5.4354   -0.4215   18.7701 H      31  UNL31       0.0241
    247 H           5.0475   -1.9036   19.6575 H      31  UNL31       0.0241
    248 H           5.0475   -1.9036   17.8827 H      31  UNL31       0.0241
    249 CL          4.9438    1.8405   22.2018 Cl     32  UNL32      -0.1257
    250 C           6.5733    1.1323   22.2018 C.3    32  UNL32       0.0198
    251 C           6.4948   -0.3798   22.2018 C.3    32  UNL32      -0.0517
    252 H           7.0984    1.4939   21.3132 H      32  UNL32       0.0427
    253 H           7.0984    1.4939   23.0903 H      32  UNL32       0.0427
    254 H           7.5016   -0.8097   22.2018 H      32  UNL32       0.0241
    255 H           5.9708   -0.7497   23.0892 H      32  UNL32       0.0241
    256 H           5.9708   -0.7497   21.3144 H      32  UNL32       0.0241
    257 CL          2.6962   -2.3534   25.8005 Cl     33  UNL33      -0.1257
    258 C           3.7382   -0.9144   25.8005 C.3    33  UNL33       0.0198
    259 C           5.1981   -1.3162   25.8005 C.3    33  UNL33      -0.0517
    260 H           3.4981   -0.3237   24.9119 H      33  UNL33       0.0427
    261 H           3.4981   -0.3237   26.6890 H      33  UNL33       0.0427
    262 H           5.8344   -0.4255   25.8005 H      33  UNL33       0.0241
    263 H           5.4466   -1.9076   26.6879 H      33  UNL33       0.0241
    264 H           5.4466   -1.9076   24.9131 H      33  UNL33       0.0241
    265 CL          5.0758    1.4875   29.1527 Cl     34  UNL34      -0.1257
    266 C           3.5911    0.7793   29.8242 C.3    34  UNL34       0.0198
    267 C           3.6626   -0.7328   29.7919 C.3    34  UNL34      -0.0517
    268 H           3.4788    1.1409   30.8503 H      34  UNL34       0.0427
    269 H           2.7464    1.1409   29.2311 H      34  UNL34       0.0427
    270 H           2.7453   -1.1627   30.2068 H      34  UNL34       0.0241
    271 H           3.7743   -1.1027   28.7674 H      34  UNL34       0.0241
    272 H           4.5057   -1.1027   30.3845 H      34  UNL34       0.0241
    273 CL          1.2561   -2.3534   33.2577 Cl     35  UNL35      -0.1257
    274 C           2.2982   -0.9144   33.2577 C.3    35  UNL35       0.0198
    275 C           3.7581   -1.3162   33.2577 C.3    35  UNL35      -0.0517
    276 H           2.0580   -0.3237   32.3691 H      35  UNL35       0.0427
    277 H           2.0580   -0.3237   34.1461 H      35  UNL35       0.0427
    278 H           4.3944   -0.4255   33.2577 H      35  UNL35       0.0241
    279 H           4.0065   -1.9076   34.1451 H      35  UNL35       0.0241
    280 H           4.0065   -1.9076   32.3703 H      35  UNL35       0.0241
    281 CL          6.1796   -0.3257   36.7196 Cl     36  UNL36      -0.1257
    282 C           4.6371    0.4777   36.3562 C.3    36  UNL36       0.0198
    283 C           3.4726   -0.4041   36.7551 C.3    36  UNL36      -0.0517
    284 H           4.6125    1.4243   36.9033 H      36  UNL36       0.0427
    285 H           4.6125    0.6920   35.2841 H      36  UNL36       0.0427
    286 H           2.5257    0.0963   36.5287 H      36  UNL36       0.0241
    287 H           3.4899   -1.3541   36.2108 H      36  UNL36       0.0241
    288 H           3.4899   -0.6226   37.8279 H      36  UNL36       0.0241
    289 CL          6.5468    5.5269   -1.1000 Cl     37  UNL37      -0.1257
    290 C           4.7970    5.2190   -1.1000 C.3    37  UNL37       0.0198
    291 C           4.0285    6.5237   -1.1000 C.3    37  UNL37      -0.0517
    292 H           4.5583    4.6278   -1.9886 H      37  UNL37       0.0427
    293 H           4.5583    4.6278   -0.2115 H      37  UNL37       0.0427
    294 H           2.9516    6.3271   -1.1000 H      37  UNL37       0.0241
    295 H           4.2617    7.1213   -0.2126 H      37  UNL37       0.0241
    296 H           4.2617    7.1213   -1.9874 H      37  UNL37       0.0241
    297 CL          6.7540    7.6463    2.7144 Cl     38  UNL38      -0.1257
    298 C           5.6735    6.4742    3.4990 C.3    38  UNL38       0.0198
    299 C           4.3223    6.4580    2.8159 C.3    38  UNL38      -0.0517
    300 H           6.1475    5.4900    3.4456 H      38  UNL38       0.0427
    301 H           5.5738    6.7584    4.5503 H      38  UNL38       0.0427
    302 H           3.6617    5.7342    3.3038 H      38  UNL38       0.0241
    303 H           3.8410    7.4402    2.8658 H      38  UNL38       0.0241
    304 H           4.4139    6.1735    1.7625 H      38  UNL38       0.0241
    305 CL          5.4416    4.5801    6.3824 Cl     39  UNL39      -0.1257
    306 C           3.8991    3.6984    6.3824 C.3    39  UNL39       0.0198
    307 C           2.7346    4.6662    6.3824 C.3    39  UNL39      -0.0517
    308 H           3.8745    3.0613    5.4938 H      39  UNL39       0.0427
    309 H           3.8745    3.0613    7.2709 H      39  UNL39       0.0427
    310 H           1.7877    4.1169    6.3824 H      39  UNL39       0.0241
    311 H           2.7519    5.3074    7.2698 H      39  UNL39       0.0241
    312 H           2.7519    5.3074    5.4950 H      39  UNL39       0.0241
    313 CL          4.5400    7.6455    8.7568 Cl     40  UNL40      -0.1257
    314 C           4.7567    6.0388    9.4836 C.3    40  UNL40       0.0198
    315 C           6.2290    5.7165    9.6294 C.3    40  UNL40      -0.0517
    316 H           4.2610    6.0397   10.4585 H      40  UNL40       0.0427
    317 H           4.2610    5.3073    8.8393 H      40  UNL40       0.0427
    318 H           6.3556    4.7258   10.0775 H      40  UNL40       0.0241
    319 H           6.7323    5.7130    8.6570 H      40  UNL40       0.0241
    320 H           6.7323    6.4445   10.2741 H      40  UNL40       0.0241
    321 CL          7.6002    2.6834   14.6068 Cl     41  UNL41      -0.1257
    322 C           7.0634    3.7362   13.2801 C.3    41  UNL41       0.0198
    323 C           8.2550    4.3170   12.5482 C.3    41  UNL41      -0.0517
    324 H           6.4458    3.1386   12.6037 H      41  UNL41       0.0427
    325 H           6.4458    4.5306   13.7083 H      41  UNL41       0.0427
    326 H           7.9176    4.9643   11.7324 H      41  UNL41       0.0241
    327 H           8.8781    4.9176   13.2189 H      41  UNL41       0.0241
    328 H           8.8781    3.5273   12.1157 H      41  UNL41       0.0241
    329 CL         12.3416    6.9131   16.0064 Cl     42  UNL42      -0.1257
    330 C          10.7991    6.0314   16.0064 C.3    42  UNL42       0.0198
    331 C           9.6346    6.9992   16.0064 C.3    42  UNL42      -0.0517
    332 H          10.7745    5.3943   15.1178 H      42  UNL42       0.0427
    333 H          10.7745    5.3943   16.8949 H      42  UNL42       0.0427
    334 H           8.6877    6.4499   16.0064 H      42  UNL42       0.0241
    335 H           9.6519    7.6404   16.8938 H      42  UNL42       0.0241
    336 H           9.6519    7.6404   15.1190 H      42  UNL42       0.0241
    337 CL          6.4416    4.9877   16.9753 Cl     43  UNL43      -0.1257
    338 C           4.8991    4.4396   16.2847 C.3    43  UNL43       0.0198
    339 C           3.7346    5.0412   17.0428 C.3    43  UNL43      -0.0517
    340 H           4.8745    4.7396   15.2332 H      43  UNL43       0.0427
    341 H           4.8745    3.3476   16.3379 H      43  UNL43       0.0427
    342 H           2.7877    4.6997   16.6125 H      43  UNL43       0.0241
    343 H           3.7519    4.7446   18.0967 H      43  UNL43       0.0241
    344 H           3.7519    6.1349   16.9934 H      43  UNL43       0.0241
    345 CL          3.7707    7.5536   20.3833 Cl     44  UNL44      -0.1257
    346 C           4.6634    6.9063   21.7764 C.3    44  UNL44       0.0198
    347 C           3.7338    6.7021   22.9541 C.3    44  UNL44      -0.0517
    348 H           5.1207    5.9599   21.4741 H      44  UNL44       0.0427
    349 H           5.4578    7.6148   22.0271 H      44  UNL44       0.0427
    350 H           4.2896    6.3033   23.8087 H      44  UNL44       0.0241
    351 H           3.2723    7.6457   23.2633 H      44  UNL44       0.0241
    352 H           2.9357    5.9930   22.7110 H      44  UNL44       0.0241
    353 CL          3.2942    5.3916   26.3187 Cl     45  UNL45      -0.1257
    354 C           2.7646    3.8426   25.6280 C.3    45  UNL45       0.0198
    355 C           1.5695    3.3044   26.3861 C.3    45  UNL45      -0.0517
    356 H           2.5143    4.0099   24.5766 H      45  UNL45       0.0427
    357 H           3.6048    3.1445   25.6813 H      45  UNL45       0.0427
    358 H           1.2484    2.3504   25.9559 H      45  UNL45       0.0241
    359 H           1.8126    3.1336   27.4400 H      45  UNL45       0.0241
    360 H           0.7236    3.9978   26.3368 H      45  UNL45       0.0241
    361 CL          4.7668    7.6456   29.2108 Cl     46  UNL46      -0.1257
    362 C           5.7570    6.3426   28.5191 C.3    46  UNL46       0.0198
    363 C           7.0366    6.1713   29.3103 C.3    46  UNL46      -0.0517
    364 H           5.1645    5.4235   28.5353 H      46  UNL46       0.0427
    365 H           5.9752    6.6004   27.4789 H      46  UNL46       0.0427
    366 H           7.6418    5.3675   28.8792 H      46  UNL46       0.0241
    367 H           7.6359    7.0876   29.2982 H      46  UNL46       0.0241
    368 H           6.8263    5.9123   30.3532 H      46  UNL46       0.0241
    369 CL          5.5196    5.3371   32.8198 Cl     47  UNL47      -0.1257
    370 C           3.9771    4.4554   32.8198 C.3    47  UNL47       0.0198
    371 C           2.8126    5.4232   32.8198 C.3    47  UNL47      -0.0517
    372 H           3.9525    3.8183   31.9312 H      47  UNL47       0.0427
    373 H           3.9525    3.8183   33.7082 H      47  UNL47       0.0427
    374 H           1.8657    4.8739   32.8198 H      47  UNL47       0.0241
    375 H           2.8299    6.0644   33.7071 H      47  UNL47       0.0241
    376 H           2.8299    6.0644   31.9324 H      47  UNL47       0.0241
    377 CL          5.4727    6.9191   38.0106 Cl     48  UNL48      -0.1257
    378 C           4.1616    6.0374   37.1980 C.3    48  UNL48       0.0198
    379 C           3.1719    7.0052   36.5844 C.3    48  UNL48      -0.0517
    380 H           4.6089    5.4003   36.4297 H      48  UNL48       0.0427
    381 H           3.6726    5.4003   37.9402 H      48  UNL48       0.0427
    382 H           2.3670    6.4559   36.0856 H      48  UNL48       0.0241
    383 H           2.7191    7.6464   37.3478 H      48  UNL48       0.0241
    384 H           3.6541    7.6464   35.8393 H      48  UNL48       0.0241
    385 CL         12.2289   -0.8348   -1.1000 Cl     49  UNL49      -0.1257
    386 C          10.6864   -1.7165   -1.1000 C.3    49  UNL49       0.0198
    387 C           9.5219   -0.7487   -1.1000 C.3    49  UNL49      -0.0517
    388 H          10.6618   -2.3536   -1.9886 H      49  UNL49       0.0427
    389 H          10.6618   -2.3536   -0.2115 H      49  UNL49       0.0427
    390 H           8.5750   -1.2980   -1.1000 H      49  UNL49       0.0241
    391 H           9.5392   -0.1075   -0.2126 H      49  UNL49       0.0241
    392 H           9.5392   -0.1075   -1.9874 H      49  UNL49       0.0241
    393 CL         11.1898    3.0062    1.6681 Cl     50  UNL50      -0.1257
    394 C           9.9080    2.5815    2.8229 C.3    50  UNL50       0.0198
    395 C           9.7395    3.6766    3.8550 C.3    50  UNL50      -0.0517
    396 H           8.9823    2.4327    2.2599 H      50  UNL50       0.0427
    397 H          10.1833    1.6370    3.3003 H      50  UNL50       0.0427
    398 H           8.9487    3.4089    4.5631 H      50  UNL50       0.0241
    399 H          10.6624    3.8311    4.4235 H      50  UNL50       0.0241
    400 H           9.4629    4.6258    3.3845 H      50  UNL50       0.0241
    401 CL         16.6617   -0.8348    5.8784 Cl     51  UNL51      -0.1257
    402 C          15.1192   -1.7165    5.8784 C.3    51  UNL51       0.0198
    403 C          13.9547   -0.7487    5.8784 C.3    51  UNL51      -0.0517
    404 H          15.0946   -2.3536    4.9898 H      51  UNL51       0.0427
    405 H          15.0946   -2.3536    6.7669 H      51  UNL51       0.0427
    406 H          13.0078   -1.2980    5.8784 H      51  UNL51       0.0241
    407 H          13.9720   -0.1075    6.7658 H      51  UNL51       0.0241
    408 H          13.9720   -0.1075    4.9910 H      51  UNL51       0.0241
    409 CL         11.8718   -0.8348    8.6270 Cl     52  UNL52      -0.1257
    410 C          10.3293   -1.7165    8.6270 C.3    52  UNL52       0.0198
    411 C           9.1648   -0.7487    8.6270 C.3    52  UNL52      -0.0517
    412 H          10.3047   -2.3536    7.7384 H      52  UNL52       0.0427
    413 H          10.3047   -2.3536    9.5155 H      52  UNL52       0.0427
    414 H           8.2179   -1.2980    8.6270 H      52  UNL52       0.0241
    415 H           9.1821   -0.1075    9.5144 H      52  UNL52       0.0241
    416 H           9.1821   -0.1075    7.7396 H      52  UNL52       0.0241
    417 CL         12.0428    1.0997   13.2809 Cl     53  UNL53      -0.1257
    418 C          12.7944   -0.2021   12.3338 C.3    53  UNL53       0.0198
    419 C          12.3730   -1.5560   12.8648 C.3    53  UNL53      -0.0517
    420 H          12.4875   -0.0813   11.2910 H      53  UNL53       0.0427
    421 H          13.8796   -0.0813   12.3957 H      53  UNL53       0.0427
    422 H          12.8393   -2.3534   12.2773 H      53  UNL53       0.0241
    423 H          12.6776   -1.6849   13.9086 H      53  UNL53       0.0241
    424 H          11.2873   -1.6849   12.8054 H      53  UNL53       0.0241
    425 CL         11.1738   -0.7448   18.1185 Cl     54  UNL54      -0.1257
    426 C           9.6313   -1.6265   18.1185 C.3    54  UNL54       0.0198
    427 C           8.4668   -0.6587   18.1185 C.3    54  UNL54      -0.0517
    428 H           9.6067   -2.2636   17.2299 H      54  UNL54       0.0427
    429 H           9.6067   -2.2636   19.0070 H      54  UNL54       0.0427
    430 H           7.5199   -1.2080   18.1185 H      54  UNL54       0.0241
    431 H           8.4841   -0.0175   19.0059 H      54  UNL54       0.0241
    432 H           8.4841   -0.0175   17.2310 H      54  UNL54       0.0241
    433 CL         16.6598   -0.8348   20.2301 Cl     55  UNL55      -0.1257
    434 C          15.1173   -1.7165   20.2301 C.3    55  UNL55       0.0198
    435 C          13.9528   -0.7487   20.2301 C.3    55  UNL55      -0.0517
    436 H          15.0927   -2.3536   19.3415 H      55  UNL55       0.0427
    437 H          15.0927   -2.3536   21.1186 H      55  UNL55       0.0427
    438 H          13.0059   -1.2980   20.2301 H      55  UNL55       0.0241
    439 H          13.9701   -0.1075   21.1175 H      55  UNL55       0.0241
    440 H          13.9701   -0.1075   19.3427 H      55  UNL55       0.0241
    441 CL          9.9233    1.3210   21.2732 Cl     56  UNL56      -0.1257
    442 C          10.0750    0.3659   22.7637 C.3    56  UNL56       0.0198
    443 C          11.0814    1.0003   23.7004 C.3    56  UNL56      -0.0517
    444 H           9.0883    0.3126   23.2323 H      56  UNL56       0.0427
    445 H          10.3862   -0.6452   22.4865 H      56  UNL56       0.0427
    446 H          11.1702    0.4074   24.6163 H      56  UNL56       0.0241
    447 H          12.0725    1.0566   23.2384 H      56  UNL56       0.0241
    448 H          10.7763    2.0131   23.9833 H      56  UNL56       0.0241
    449 CL         16.6625   -2.3527   27.2335 Cl     57  UNL57      -0.1257
    450 C          15.0130   -1.6925   27.2335 C.3    57  UNL57       0.0198
    451 C          15.0473   -0.1787   27.2335 C.3    57  UNL57      -0.0517
    452 H          14.4987   -2.0692   26.3449 H      57  UNL57       0.0427
    453 H          14.4987   -2.0692   28.1220 H      57  UNL57       0.0427
    454 H          14.0284    0.2216   27.2335 H      57  UNL57       0.0241
    455 H          15.5603    0.2063   28.1209 H      57  UNL57       0.0241
    456 H          15.5603    0.2063   26.3461 H      57  UNL57       0.0241
    457 CL         10.3197   -0.8348   28.6851 Cl     58  UNL58      -0.1257
    458 C           8.7772   -1.7165   28.6851 C.3    58  UNL58       0.0198
    459 C           7.6127   -0.7487   28.6851 C.3    58  UNL58      -0.0517
    460 H           8.7526   -2.3536   27.7965 H      58  UNL58       0.0427
    461 H           8.7526   -2.3536   29.5736 H      58  UNL58       0.0427
    462 H           6.6658   -1.2980   28.6851 H      58  UNL58       0.0241
    463 H           7.6300   -0.1075   29.5725 H      58  UNL58       0.0241
    464 H           7.6300   -0.1075   27.7977 H      58  UNL58       0.0241
    465 CL         11.7647   -0.8348   32.1188 Cl     59  UNL59      -0.1257
    466 C          10.2222   -1.7165   32.1188 C.3    59  UNL59       0.0198
    467 C           9.0577   -0.7487   32.1188 C.3    59  UNL59      -0.0517
    468 H          10.1976   -2.3536   31.2302 H      59  UNL59       0.0427
    469 H          10.1976   -2.3536   33.0073 H      59  UNL59       0.0427
    470 H           8.1108   -1.2980   32.1188 H      59  UNL59       0.0241
    471 H           9.0750   -0.1075   33.0062 H      59  UNL59       0.0241
    472 H           9.0750   -0.1075   31.2314 H      59  UNL59       0.0241
    473 CL         12.6538    0.2152   37.1225 Cl     60  UNL60      -0.1257
    474 C          11.1113   -0.6665   37.1225 C.3    60  UNL60       0.0198
    475 C           9.9468    0.3013   37.1225 C.3    60  UNL60      -0.0517
    476 H          11.0867   -1.3036   36.2339 H      60  UNL60       0.0427
    477 H          11.0867   -1.3036   38.0110 H      60  UNL60       0.0427
    478 H           8.9999   -0.2480   37.1225 H      60  UNL60       0.0241
    479 H           9.9641    0.9425   38.0099 H      60  UNL60       0.0241
    480 H           9.9641    0.9425   36.2351 H      60  UNL60       0.0241
    481 CL          9.9626    4.7622   -1.1000 Cl     61  UNL61      -0.1257
    482 C          10.9556    6.2355   -1.1000 C.3    61  UNL61       0.0198
    483 C          12.4282    5.8829   -1.1000 C.3    61  UNL61      -0.0517
    484 H          10.6958    6.8177   -1.9886 H      61  UNL61       0.0427
    485 H          10.6958    6.8177   -0.2115 H      61  UNL61       0.0427
    486 H          13.0342    6.7945   -1.1000 H      61  UNL61       0.0241
    487 H          12.6964    5.3002   -0.2126 H      61  UNL61       0.0241
    488 H          12.6964    5.3002   -1.9874 H      61  UNL61       0.0241
    489 CL         16.6577    6.4987    2.4284 Cl     62  UNL62      -0.1257
    490 C          15.1152    5.9506    3.1191 C.3    62  UNL62       0.0198
    491 C          13.9507    6.5522    2.3610 C.3    62  UNL62      -0.0517
    492 H          15.0906    4.8585    3.0658 H      62  UNL62       0.0427
    493 H          15.0906    6.2506    4.1704 H      62  UNL62       0.0427
    494 H          13.0038    6.2107    2.7913 H      62  UNL62       0.0241
    495 H          13.9680    7.6459    2.4103 H      62  UNL62       0.0241
    496 H          13.9680    6.2556    1.3071 H      62  UNL62       0.0241
    497 CL         16.6625    2.2192    7.6784 Cl     63  UNL63      -0.1257
    498 C          15.0130    2.8794    7.6784 C.3    63  UNL63       0.0198
    499 C          15.0473    4.3932    7.6784 C.3    63  UNL63      -0.0517
    500 H          14.4987    2.5026    6.7898 H      63  UNL63       0.0427
    501 H          14.4987    2.5026    8.5669 H      63  UNL63       0.0427
    502 H          14.0284    4.7934    7.6784 H      63  UNL63       0.0241
    503 H          15.5603    4.7782    8.5658 H      63  UNL63       0.0241
    504 H          15.5603    4.7782    6.7910 H      63  UNL63       0.0241
    505 CL         10.6631    6.9191    7.3760 Cl     64  UNL64      -0.1257
    506 C          10.9882    6.0374    8.8838 C.3    64  UNL64       0.0198
    507 C          11.2337    7.0052   10.0222 C.3    64  UNL64      -0.0517
    508 H          10.1248    5.4003    9.0952 H      64  UNL64       0.0427
    509 H          11.8619    5.4003    8.7206 H      64  UNL64       0.0427
    510 H          11.4333    6.4559   10.9478 H      64  UNL64       0.0241
    511 H          12.0975    7.6464    9.8182 H      64  UNL64       0.0241
    512 H          10.3626    7.6464   10.1923 H      64  UNL64       0.0241
    513 CL         15.9349    4.4766   12.1512 Cl     65  UNL65      -0.1257
    514 C          15.7284    6.2355   12.2937 C.3    65  UNL65       0.0198
    515 C          14.5726    6.5612   13.2161 C.3    65  UNL65      -0.0517
    516 H          16.6624    6.6548   12.6785 H      65  UNL65       0.0427
    517 H          15.5508    6.6367   11.2920 H      65  UNL65       0.0427
    518 H          14.4509    7.6459   13.2995 H      65  UNL65       0.0241
    519 H          13.6334    6.1451   12.8370 H      65  UNL65       0.0241
    520 H          14.7435    6.1631   14.2217 H      65  UNL65       0.0241
    521 CL         16.6618    2.0211   15.9704 Cl     66  UNL66      -0.1257
    522 C          15.1193    1.1394   15.9704 C.3    66  UNL66       0.0198
    523 C          13.9548    2.1072   15.9704 C.3    66  UNL66      -0.0517
    524 H          15.0947    0.5023   15.0818 H      66  UNL66       0.0427
    525 H          15.0947    0.5023   16.8589 H      66  UNL66       0.0427
    526 H          13.0079    1.5579   15.9704 H      66  UNL66       0.0241
    527 H          13.9721    2.7484   16.8578 H      66  UNL66       0.0241
    528 H          13.9721    2.7484   15.0830 H      66  UNL66       0.0241
    529 CL         16.6197    6.9191   19.1421 Cl     67  UNL67      -0.1257
    530 C          15.0772    6.0374   19.1421 C.3    67  UNL67       0.0198
    531 C          13.9127    7.0052   19.1421 C.3    67  UNL67      -0.0517
    532 H          15.0526    5.4003   18.2535 H      67  UNL67       0.0427
    533 H          15.0526    5.4003   20.0306 H      67  UNL67       0.0427
    534 H          12.9658    6.4559   19.1421 H      67  UNL67       0.0241
    535 H          13.9300    7.6464   20.0295 H      67  UNL67       0.0241
    536 H          13.9300    7.6464   18.2547 H      67  UNL67       0.0241
    537 CL         10.5860    6.6116   20.7022 Cl     68  UNL68      -0.1257
    538 C           9.7787    6.6077   22.2850 C.3    68  UNL68       0.0198
    539 C          10.6506    5.9344   23.3238 C.3    68  UNL68      -0.0517
    540 H           9.5752    7.6458   22.5626 H      68  UNL68       0.0427
    541 H           8.8264    6.0810   22.1769 H      68  UNL68       0.0427
    542 H          10.1477    5.9354   24.2962 H      68  UNL68       0.0241
    543 H          10.8583    4.8940   23.0531 H      68  UNL68       0.0241
    544 H          11.6061    6.4568   23.4384 H      68  UNL68       0.0241
    545 CL         16.6618    4.8433   25.4666 Cl     69  UNL69      -0.1257
    546 C          15.6531    6.1891   24.8938 C.3    69  UNL69       0.0198
    547 C          14.8313    6.7579   26.0312 C.3    69  UNL69      -0.0517
    548 H          16.3147    6.9517   24.4734 H      69  UNL69       0.0427
    549 H          15.0053    5.8104   24.0982 H      69  UNL69       0.0427
    550 H          14.2123    7.5862   25.6718 H      69  UNL69       0.0241
    551 H          14.1654    6.0002   26.4570 H      69  UNL69       0.0241
    552 H          15.4732    7.1400   26.8317 H      69  UNL69       0.0241
    553 CL         12.9388    4.2199   28.3144 Cl     70  UNL70      -0.1257
    554 C          11.3963    3.6489   28.9863 C.3    70  UNL70       0.0198
    555 C          10.2318    4.2757   28.2488 C.3    70  UNL70      -0.0517
    556 H          11.3717    2.5592   28.8963 H      70  UNL70       0.0427
    557 H          11.3717    3.9134   30.0471 H      70  UNL70       0.0427
    558 H           9.2849    3.9199   28.6674 H      70  UNL70       0.0241
    559 H          10.2491    5.3671   28.3349 H      70  UNL70       0.0241
    560 H          10.2491    4.0147   27.1856 H      70  UNL70       0.0241
    561 CL         16.6617    6.4987   31.5405 Cl     71  UNL71      -0.1257
    562 C          15.1193    5.9506   32.2312 C.3    71  UNL71       0.0198
    563 C          13.9547    6.5522   31.4731 C.3    71  UNL71      -0.0517
    564 H          15.0946    4.8585   32.1779 H      71  UNL71       0.0427
    565 H          15.0946    6.2506   33.2825 H      71  UNL71       0.0427
    566 H          13.0078    6.2108   31.9034 H      71  UNL71       0.0241
    567 H          13.9720    7.6459   31.5224 H      71  UNL71       0.0241
    568 H          13.9720    6.2557   30.4192 H      71  UNL71       0.0241
    569 CL         11.0769    5.0479   37.3446 Cl     72  UNL72      -0.1257
    570 C           9.7248    5.8444   36.5115 C.3    72  UNL72       0.0198
    571 C           9.6119    5.3458   35.0862 C.3    72  UNL72      -0.0517
    572 H           8.8101    5.6302   37.0714 H      72  UNL72       0.0427
    573 H           9.9038    6.9230   36.5324 H      72  UNL72       0.0427
    574 H           8.7774    5.8401   34.5787 H      72  UNL72       0.0241
    575 H          10.5241    5.5573   34.5187 H      72  UNL72       0.0241
    576 H           9.4318    4.2661   35.0570 H      72  UNL72       0.0241
@<TRIPOS>BOND
     1     1     2    1
     2     2     3    1
     3     2     4    1
     4     2     5    1
     5     3     6    1
     6     3     7    1
     7     3     8    1
     8     9    10    1
     9    10    11    1
    10    10    12    1
    11    10    13    1
    12    11    14    1
    13    11    15    1
    14    11    16    1
    15    17    18    1
    16    18    19    1
    17    18    20    1
    18    18    21    1
    19    19    22    1
    20    19    23    1
    21    19    24    1
    22    25    26    1
    23    26    27    1
    24    26    28    1
    25    26    29    1
    26    27    30    1
    27    27    31    1
    28    27    32    1
    29    33    34    1
    30    34    35    1
    31    34    36    1
    32    34    37    1
    33    35    38    1
    34    35    39    1
    35    35    40    1
    36    41    42    1
    37    42    43    1
    38    42    44    1
    39    42    45    1
    40    43    46    1
    41    43    47    1
    42    43    48    1
    43    49    50    1
    44    50    51    1
    45    50    52    1
    46    50    53    1
    47    51    54    1
    48    51    55    1
    49    51    56    1
    50    57    58    1
    51    58    59    1
    52    58    60    1
    53    58    61    1
    54    59    62    1
    55    59    63    1
    56    59    64    1
    57    65    66    1
    58    66    67    1
    59    66    68    1
    60    66    69    1
    61    67    70    1
    62    67    71    1
    63    67    72    1
    64    73    74    1
    65    74    75    1
    66    74    76    1
    67    74    77    1
    68    75    78    1
    69    75    79    1
    70    75    80    1
    71    81    82    1
    72    82    83    1
    73    82    84    1
    74    82    85    1
    75    83    86    1
    76    83    87    1
    77    83    88    1
    78    89    90    1
    79    90    91    1
    80    90    92    1
    81    90    93    1
    82    91    94    1
    83    91    95    1
    84    91    96    1
    85    97    98    1
    86    98    99    1
    87    98   100    1
    88    98   101    1
    89    99   102    1
    90    99   103    1
    91    99   104    1
    92   105   106    1
    93   106   107    1
    94   106   108    1
    95   106   109    1
    96   107   110    1
    97   107   111    1
    98   107   112    1
    99   113   114    1
   100   114   115    1
   101   114   116    1
   102   114   117    1
   103   115   118    1
   104   115   119    1
   105   115   120    1
   106   121   122    1
   107   122   123    1
   108   122   124    1
   109   122   125    1
   110   123   126    1
   111   123   127    1
   112   123   128    1
   113   129   130    1
   114   130   131    1
   115   130   132    1
   116   130   133    1
   117   131   134    1
   118   131   135    1
   119   131   136    1
   120   137   138    1
   121   138   139    1
   122   138   140    1
   123   138   141    1
   124   139   142    1
   125   139   143    1
   126   139   144    1
   127   145   146    1
   128   146   147    1
   129   146   148    1
   130   146   149    1
   131   147   150    1
   132   147   151    1
   133   147   152    1
   134   153   154    1
   135   154   155    1
   136   154   156    1
   137   154   157    1
   138   155   158    1
   139   155   159    1
   140   155   160    1
   141   161   162    1
   142   162   163    1
   143   162   164    1
   144   162   165    1
   145   163   166    1
   146   163   167    1
   147   163   168    1
   148   169   170    1
   149   170   171    1
   150   170   172    1
   151   170   173    1
   152   171   174    1
   153   171   175    1
   154   171   176    1
   155   177   178    1
   156   178   179    1
   157   178   180    1
   158   178   181    1
   159   179   182    1
   160   179   183    1
   161   179   184    1
   162   185   186    1
   163   186   187    1
   164   186   188    1
   165   186   189    1
   166   187   190    1
   167   187   191    1
   168   187   192    1
   169   193   194    1
   170   194   195    1
   171   194   196    1
   172   194   197    1
   173   195   198    1
   174   195   199    1
   175   195   200    1
   176   201   202    1
   177   202   203    1
   178   202   204    1
   179   202   205    1
   180   203   206    1
   181   203   207    1
   182   203   208    1
   183   209   210    1
   184   210   211    1
   185   210   212    1
   186   210   213    1
   187   211   214    1
   188   211   215    1
   189   211   216    1
   190   217   218    1
   191   218   219    1
   192   218   220    1
   193   218   221    1
   194   219   222    1
   195   219   223    1
   196   219   224    1
   197   225   226    1
   198   226   227    1
   199   226   228    1
   200   226   229    1
   201   227   230    1
   202   227   231    1
   203   227   232    1
   204   233   234    1
   205   234   235    1
   206   234   236    1
   207   234   237    1
   208   235   238    1
   209   235   239    1
   210   235   240    1
   211   241   242    1
   212   242   243    1
   213   242   244    1
   214   242   245    1
   215   243   246    1
   216   243   247    1
   217   243   248    1
   218   249   250    1
   219   250   251    1
   220   250   252    1
   221   250   253    1
   222   251   254    1
   223   251   255    1
   224   251   256    1
   225   257   258    1
   226   258   259    1
   227   258   260    1
   228   258   261    1
   229   259   262    1
   230   259   263    1
   231   259   264    1
   232   265   266    1
   233   266   267    1
   234   266   268    1
   235   266   269    1
   236   267   270    1
   237   267   271    1
   238   267   272    1
   239   273   274    1
   240   274   275    1
   241   274   276    1
   242   274   277    1
   243   275   278    1
   244   275   279    1
   245   275   280    1
   246   281   282    1
   247   282   283    1
   248   282   284    1
   249   282   285    1
   250   283   286    1
   251   283   287    1
   252   283   288    1
   253   289   290    1
   254   290   291    1
   255   290   292    1
   256   290   293    1
   257   291   294    1
   258   291   295    1
   259   291   296    1
   260   297   298    1
   261   298   299    1
   262   298   300    1
   263   298   301    1
   264   299   302    1
   265   299   303    1
   266   299   304    1
   267   305   306    1
   268   306   307    1
   269   306   308    1
   270   306   309    1
   271   307   310    1
   272   307   311    1
   273   307   312    1
   274   313   314    1
   275   314   315    1
   276   314   316    1
   277   314   317    1
   278   315   318    1
   279   315   319    1
   280   315   320    1
   281   321   322    1
   282   322   323    1
   283   322   324    1
   284   322   325    1
   285   323   326    1
   286   323   327    1
   287   323   328    1
   288   329   330    1
   289   330   331    1
   290   330   332    1
   291   330   333    1
   292   331   334    1
   293   331   335    1
   294   331   336    1
   295   337   338    1
   296   338   339    1
   297   338   340    1
   298   338   341    1
   299   339   342    1
   300   339   343    1
   301   339   344    1
   302   345   346    1
   303   346   347    1
   304   346   348    1
   305   346   349    1
   306   347   350    1
   307   347   351    1
   308   347   352    1
   309   353   354    1
   310   354   355    1
   311   354   356    1
   312   354   357    1
   313   355   358    1
   314   355   359    1
   315   355   360    1
   316   361   362    1
   317   362   363    1
   318   362   364    1
   319   362   365    1
   320   363   366    1
   321   363   367    1
   322   363   368    1
   323   369   370    1
   324   370   371    1
   325   370   372    1
   326   370   373    1
   327   371   374    1
   328   371   375    1
   329   371   376    1
   330   377   378    1
   331   378   379    1
   332   378   380    1
   333   378   381    1
   334   379   382    1
   335   379   383    1
   336   379   384    1
   337   385   386    1
   338   386   387    1
   339   386   388    1
   340   386   389    1
   341   387   390    1
   342   387   391    1
   343   387   392    1
   344   393   394    1
   345   394   395    1
   346   394   396    1
   347   394   397    1
   348   395   398    1
   349   395   399    1
   350   395   400    1
   351   401   402    1
   352   402   403    1
   353   402   404    1
   354   402   405    1
   355   403   406    1
   356   403   407    1
   357   403   408    1
   358   409   410    1
   359   410   411    1
   360   410   412    1
   361   410   413    1
   362   411   414    1
   363   411   415    1
   364   411   416    1
   365   417   418    1
   366   418   419    1
   367   418   420    1
   368   418   421    1
   369   419   422    1
   370   419   423    1
   371   419   424    1
   372   425   426    1
   373   426   427    1
   374   426   428    1
   375   426   429    1
   376   427   430    1
   377   427   431    1
   378   427   432    1
   379   433   434    1
   380   434   435    1
   381   434   436    1
   382   434   437    1
   383   435   438    1
   384   435   439    1
   385   435   440    1
   386   441   442    1
   387   442   443    1
   388   442   444    1
   389   442   445    1
   390   443   446    1
   391   443   447    1
   392   443   448    1
   393   449   450    1
   394   450   451    1
   395   450   452    1
   396   450   453    1
   397   451   454    1
   398   451   455    1
   399   451   456    1
   400   457   458    1
   401   458   459    1
   402   458   460    1
   403   458   461    1
   404   459   462    1
   405   459   463    1
   406   459   464    1
   407   465   466    1
   408   466   467    1
   409   466   468    1
   410   466   469    1
   411   467   470    1
   412   467   471    1
   413   467   472    1
   414   473   474    1
   415   474   475    1
   416   474   476    1
   417   474   477    1
   418   475   478    1
   419   475   479    1
   420   475   480    1
   421   481   482    1
   422   482   483    1
   423   482   484    1
   424   482   485    1
   425   483   486    1
   426   483   487    1
   427   483   488    1
   428   489   490    1
   429   490   491    1
   430   490   492    1
   431   490   493    1
   432   491   494    1
   433   491   495    1
   434   491   496    1
   435   497   498    1
   436   498   499    1
   437   498   500    1
   438   498   501    1
   439   499   502    1
   440   499   503    1
   441   499   504    1
   442   505   506    1
   443   506   507    1
   444   506   508    1
   445   506   509    1
   446   507   510    1
   447   507   511    1
   448   507   512    1
   449   513   514    1
   450   514   515    1
   451   514   516    1
   452   514   517    1
   453   515   518    1
   454   515   519    1
   455   515   520    1
   456   521   522    1
   457   522   523    1
   458   522   524    1
   459   522   525    1
   460   523   526    1
   461   523   527    1
   462   523   528    1
   463   529   530    1
   464   530   531    1
   465   530   532    1
   466   530   533    1
   467   531   534    1
   468   531   535    1
   469   531   536    1
   470   537   538    1
   471   538   539    1
   472   538   540    1
   473   538   541    1
   474   539   542    1
   475   539   543    1
   476   539   544    1
   477   545   546    1
   478   546   547    1
   479   546   548    1
   480   546   549    1
   481   547   550    1
   482   547   551    1
   483   547   552    1
   484   553   554    1
   485   554   555    1
   486   554   556    1
   487   554   557    1
   488   555   558    1
   489   555   559    1
   490   555   560    1
   491   561   562    1
   492   562   563    1
   493   562   564    1
   494   562   565    1
   495   563   566    1
   496   563   567    1
   497   563   568    1
   498   569   570    1
   499   570   571    1
   500   570   572    1
   501   570   573    1
   502   571   574    1
   503   571   575    1
   504   571   576    1
