@<TRIPOS>MOLECULE
*****
 512 448 0 0 0
SMALL
GASTEIGER

@<TRIPOS>ATOM
      1 CL          0.3165   -0.8348   -1.1000 Cl      1  LIG1       -0.1257
      2 C          -1.2260   -1.7165   -1.1000 C.3     1  LIG1        0.0198
      3 C          -2.3905   -0.7487   -1.1000 C.3     1  LIG1       -0.0517
      4 H          -1.2506   -2.3536   -1.9886 H       1  LIG1        0.0427
      5 H          -1.2506   -2.3536   -0.2115 H       1  LIG1        0.0427
      6 H          -3.3374   -1.2980   -1.1000 H       1  LIG1        0.0241
      7 H          -2.3732   -0.1075   -0.2126 H       1  LIG1        0.0241
      8 H          -2.3732   -0.1075   -1.9874 H       1  LIG1        0.0241
      9 CL         -0.9700   -0.8348    1.2845 Cl      2  LIG2       -0.1257
     10 C          -1.9288   -1.7165    2.4927 C.3     2  LIG2        0.0198
     11 C          -2.6527   -0.7487    3.4049 C.3     2  LIG2       -0.0517
     12 H          -2.6402   -2.3536    1.9597 H       2  LIG2        0.0427
     13 H          -1.2481   -2.3536    3.0643 H       2  LIG2        0.0427
     14 H          -3.2413   -1.2980    4.1467 H       2  LIG2        0.0241
     15 H          -1.9468   -0.1075    3.9430 H       2  LIG2        0.0241
     16 H          -3.3371   -0.1075    2.8398 H       2  LIG2        0.0241
     17 CL          1.1205    0.6592    5.7020 Cl      3  LIG3       -0.1257
     18 C          -0.4220   -0.2225    5.7020 C.3     3  LIG3        0.0198
     19 C          -1.5865    0.7453    5.7020 C.3     3  LIG3       -0.0517
     20 H          -0.4466   -0.8596    4.8134 H       3  LIG3        0.0427
     21 H          -0.4466   -0.8596    6.5905 H       3  LIG3        0.0427
     22 H          -2.5334    0.1960    5.7020 H       3  LIG3        0.0241
     23 H          -1.5692    1.3865    6.5894 H       3  LIG3        0.0241
     24 H          -1.5692    1.3865    4.8146 H       3  LIG3        0.0241
     25 CL          0.3175   -0.8348    8.5319 Cl      4  LIG4       -0.1257
     26 C          -1.2250   -1.7165    8.5319 C.3     4  LIG4        0.0198
     27 C          -2.3895   -0.7487    8.5319 C.3     4  LIG4       -0.0517
     28 H          -1.2496   -2.3536    7.6433 H       4  LIG4        0.0427
     29 H          -1.2496   -2.3536    9.4204 H       4  LIG4        0.0427
     30 H          -3.3364   -1.2980    8.5319 H       4  LIG4        0.0241
     31 H          -2.3722   -0.1075    9.4193 H       4  LIG4        0.0241
     32 H          -2.3722   -0.1075    7.6445 H       4  LIG4        0.0241
     33 CL          0.7635    1.0612   11.2798 Cl      5  LIG5       -0.1257
     34 C          -0.7790    0.1795   11.2798 C.3     5  LIG5        0.0198
     35 C          -1.9435    1.1473   11.2798 C.3     5  LIG5       -0.0517
     36 H          -0.8036   -0.4576   10.3912 H       5  LIG5        0.0427
     37 H          -0.8036   -0.4576   12.1683 H       5  LIG5        0.0427
     38 H          -2.8904    0.5980   11.2798 H       5  LIG5        0.0241
     39 H          -1.9262    1.7885   12.1672 H       5  LIG5        0.0241
     40 H          -1.9262    1.7885   10.3924 H       5  LIG5        0.0241
     41 CL          0.3165   -0.8348   14.1418 Cl      6  LIG6       -0.1257
     42 C          -1.2260   -1.7165   14.1418 C.3     6  LIG6        0.0198
     43 C          -2.3905   -0.7487   14.1418 C.3     6  LIG6       -0.0517
     44 H          -1.2506   -2.3536   13.2532 H       6  LIG6        0.0427
     45 H          -1.2506   -2.3536   15.0303 H       6  LIG6        0.0427
     46 H          -3.3374   -1.2980   14.1418 H       6  LIG6        0.0241
     47 H          -2.3732   -0.1075   15.0292 H       6  LIG6        0.0241
     48 H          -2.3732   -0.1075   13.2544 H       6  LIG6        0.0241
     49 CL          0.6345    1.0602   17.0289 Cl      7  LIG7       -0.1257
     50 C          -0.9080    0.1785   17.0289 C.3     7  LIG7        0.0198
     51 C          -2.0725    1.1463   17.0289 C.3     7  LIG7       -0.0517
     52 H          -0.9326   -0.4586   16.1403 H       7  LIG7        0.0427
     53 H          -0.9326   -0.4586   17.9174 H       7  LIG7        0.0427
     54 H          -3.0194    0.5970   17.0289 H       7  LIG7        0.0241
     55 H          -2.0552    1.7875   17.9163 H       7  LIG7        0.0241
     56 H          -2.0552    1.7875   16.1415 H       7  LIG7        0.0241
     57 CL          0.3165   -0.8348   20.1228 Cl      8  LIG8       -0.1257
     58 C          -1.2260   -1.7165   20.1228 C.3     8  LIG8        0.0198
     59 C          -2.3905   -0.7487   20.1228 C.3     8  LIG8       -0.0517
     60 H          -1.2506   -2.3536   19.2342 H       8  LIG8        0.0427
     61 H          -1.2506   -2.3536   21.0113 H       8  LIG8        0.0427
     62 H          -3.3374   -1.2980   20.1228 H       8  LIG8        0.0241
     63 H          -2.3732   -0.1075   21.0102 H       8  LIG8        0.0241
     64 H          -2.3732   -0.1075   19.2354 H       8  LIG8        0.0241
     65 CL          1.9945    3.6185   -1.1000 Cl      9  LIG9       -0.1257
     66 C           0.4520    2.7368   -1.1000 C.3     9  LIG9        0.0198
     67 C          -0.7125    3.7046   -1.1000 C.3     9  LIG9       -0.0517
     68 H           0.4274    2.0997   -1.9886 H       9  LIG9        0.0427
     69 H           0.4274    2.0997   -0.2115 H       9  LIG9        0.0427
     70 H          -1.6594    3.1553   -1.1000 H       9  LIG9        0.0241
     71 H          -0.6952    4.3458   -0.2126 H       9  LIG9        0.0241
     72 H          -0.6952    4.3458   -1.9874 H       9  LIG9        0.0241
     73 CL          0.3165    3.3695    1.7920 Cl     10  LIG10      -0.1257
     74 C          -1.2260    2.4878    1.7920 C.3    10  LIG10       0.0198
     75 C          -2.3905    3.4556    1.7920 C.3    10  LIG10      -0.0517
     76 H          -1.2506    1.8507    0.9034 H      10  LIG10       0.0427
     77 H          -1.2506    1.8507    2.6805 H      10  LIG10       0.0427
     78 H          -3.3374    2.9063    1.7920 H      10  LIG10       0.0241
     79 H          -2.3732    4.0968    2.6794 H      10  LIG10       0.0241
     80 H          -2.3732    4.0968    0.9046 H      10  LIG10       0.0241
     81 CL          1.6225    3.9185    4.8519 Cl     11  LIG11      -0.1257
     82 C           0.0800    3.0368    4.8519 C.3    11  LIG11       0.0198
     83 C          -1.0845    4.0046    4.8519 C.3    11  LIG11      -0.0517
     84 H           0.0554    2.3997    3.9633 H      11  LIG11       0.0427
     85 H           0.0554    2.3997    5.7404 H      11  LIG11       0.0427
     86 H          -2.0314    3.4553    4.8519 H      11  LIG11       0.0241
     87 H          -1.0672    4.6458    5.7393 H      11  LIG11       0.0241
     88 H          -1.0672    4.6458    3.9645 H      11  LIG11       0.0241
     89 CL          0.3165    4.6335    7.9958 Cl     12  LIG12      -0.1257
     90 C          -1.2260    3.7518    7.9958 C.3    12  LIG12       0.0198
     91 C          -2.3905    4.7196    7.9958 C.3    12  LIG12      -0.0517
     92 H          -1.2506    3.1147    7.1072 H      12  LIG12       0.0427
     93 H          -1.2506    3.1147    8.8843 H      12  LIG12       0.0427
     94 H          -3.3374    4.1703    7.9958 H      12  LIG12       0.0241
     95 H          -2.3732    5.3608    8.8832 H      12  LIG12       0.0241
     96 H          -2.3732    5.3608    7.1084 H      12  LIG12       0.0241
     97 CL          1.8745    4.5605   10.9618 Cl     13  LIG13      -0.1257
     98 C           0.3320    3.6788   10.9618 C.3    13  LIG13       0.0198
     99 C          -0.8325    4.6466   10.9618 C.3    13  LIG13      -0.0517
    100 H           0.3074    3.0417   10.0732 H      13  LIG13       0.0427
    101 H           0.3074    3.0417   11.8503 H      13  LIG13       0.0427
    102 H          -1.7794    4.0973   10.9618 H      13  LIG13       0.0241
    103 H          -0.8152    5.2878   11.8492 H      13  LIG13       0.0241
    104 H          -0.8152    5.2878   10.0744 H      13  LIG13       0.0241
    105 CL          1.2095    3.2105   14.0558 Cl     14  LIG14      -0.1257
    106 C          -0.3330    2.3288   14.0558 C.3    14  LIG14       0.0198
    107 C          -1.4975    3.2966   14.0558 C.3    14  LIG14      -0.0517
    108 H          -0.3576    1.6917   13.1672 H      14  LIG14       0.0427
    109 H          -0.3576    1.6917   14.9443 H      14  LIG14       0.0427
    110 H          -2.4444    2.7473   14.0558 H      14  LIG14       0.0241
    111 H          -1.4802    3.9378   14.9432 H      14  LIG14       0.0241
    112 H          -1.4802    3.9378   13.1684 H      14  LIG14       0.0241
    113 CL          1.1985    4.6455   17.1538 Cl     15  LIG15      -0.1257
    114 C          -0.3440    3.7638   17.1538 C.3    15  LIG15       0.0198
    115 C          -1.5085    4.7316   17.1538 C.3    15  LIG15      -0.0517
    116 H          -0.3686    3.1267   16.2652 H      15  LIG15       0.0427
    117 H          -0.3686    3.1267   18.0423 H      15  LIG15       0.0427
    118 H          -2.4554    4.1823   17.1538 H      15  LIG15       0.0241
    119 H          -1.4912    5.3728   18.0412 H      15  LIG15       0.0241
    120 H          -1.4912    5.3728   16.2664 H      15  LIG15       0.0241
    121 CL          0.8065    2.8665   20.1228 Cl     16  LIG16      -0.1257
    122 C          -0.7360    1.9848   20.1228 C.3    16  LIG16       0.0198
    123 C          -1.9005    2.9526   20.1228 C.3    16  LIG16      -0.0517
    124 H          -0.7606    1.3477   19.2342 H      16  LIG16       0.0427
    125 H          -0.7606    1.3477   21.0113 H      16  LIG16       0.0427
    126 H          -2.8474    2.4033   20.1228 H      16  LIG16       0.0241
    127 H          -1.8832    3.5938   21.0102 H      16  LIG16       0.0241
    128 H          -1.8832    3.5938   19.2354 H      16  LIG16       0.0241
    129 CL          1.8875    8.2527   -1.1000 Cl     17  LIG17      -0.1257
    130 C           0.3450    7.3710   -1.1000 C.3    17  LIG17       0.0198
    131 C          -0.8195    8.3388   -1.1000 C.3    17  LIG17      -0.0517
    132 H           0.3204    6.7339   -1.9886 H      17  LIG17       0.0427
    133 H           0.3204    6.7339   -0.2115 H      17  LIG17       0.0427
    134 H          -1.7664    7.7895   -1.1000 H      17  LIG17       0.0241
    135 H          -0.8022    8.9800   -0.2126 H      17  LIG17       0.0241
    136 H          -0.8022    8.9800   -1.9874 H      17  LIG17       0.0241
    137 CL          1.4475    6.7279    1.6316 Cl     18  LIG18      -0.1257
    138 C          -0.0951    7.5312    1.9949 C.3    18  LIG18       0.0198
    139 C          -1.2595    6.6494    1.5961 C.3    18  LIG18      -0.0517
    140 H          -0.1197    7.7455    3.0671 H      18  LIG18       0.0427
    141 H          -0.1197    8.4778    1.4479 H      18  LIG18       0.0427
    142 H          -2.2065    7.1499    1.8224 H      18  LIG18       0.0241
    143 H          -1.2422    6.4309    0.5233 H      18  LIG18       0.0241
    144 H          -1.2422    5.6995    2.1404 H      18  LIG18       0.0241
    145 CL          1.4834    7.7337    5.0659 Cl     19  LIG19      -0.1257
    146 C          -0.0591    6.8520    5.0659 C.3    19  LIG19       0.0198
    147 C          -1.2236    7.8198    5.0659 C.3    19  LIG19      -0.0517
    148 H          -0.0837    6.2149    4.1773 H      19  LIG19       0.0427
    149 H          -0.0837    6.2149    5.9544 H      19  LIG19       0.0427
    150 H          -2.1705    7.2705    5.0659 H      19  LIG19       0.0241
    151 H          -1.2063    8.4610    5.9533 H      19  LIG19       0.0241
    152 H          -1.2063    8.4610    4.1785 H      19  LIG19       0.0241
    153 CL          0.3165    8.4697    8.3389 Cl     20  LIG20      -0.1257
    154 C          -1.2260    7.5880    8.3389 C.3    20  LIG20       0.0198
    155 C          -2.3905    8.5558    8.3389 C.3    20  LIG20      -0.0517
    156 H          -1.2506    6.9509    7.4503 H      20  LIG20       0.0427
    157 H          -1.2506    6.9509    9.2274 H      20  LIG20       0.0427
    158 H          -3.3374    8.0065    8.3389 H      20  LIG20       0.0241
    159 H          -2.3732    9.1970    9.2263 H      20  LIG20       0.0241
    160 H          -2.3732    9.1970    7.4515 H      20  LIG20       0.0241
    161 CL          2.2875    8.0598   11.1219 Cl     21  LIG21      -0.1257
    162 C           0.7450    7.1781   11.1219 C.3    21  LIG21       0.0198
    163 C          -0.4195    8.1459   11.1219 C.3    21  LIG21      -0.0517
    164 H           0.7204    6.5410   10.2333 H      21  LIG21       0.0427
    165 H           0.7204    6.5410   12.0104 H      21  LIG21       0.0427
    166 H          -1.3664    7.5966   11.1219 H      21  LIG21       0.0241
    167 H          -0.4022    8.7871   12.0093 H      21  LIG21       0.0241
    168 H          -0.4022    8.7871   10.2345 H      21  LIG21       0.0241
    169 CL          0.3165    8.0598   13.8859 Cl     22  LIG22      -0.1257
    170 C          -1.2260    7.1781   13.8859 C.3    22  LIG22       0.0198
    171 C          -2.3905    8.1459   13.8859 C.3    22  LIG22      -0.0517
    172 H          -1.2506    6.5410   12.9973 H      22  LIG22       0.0427
    173 H          -1.2506    6.5410   14.7744 H      22  LIG22       0.0427
    174 H          -3.3374    7.5966   13.8859 H      22  LIG22       0.0241
    175 H          -2.3732    8.7871   14.7733 H      22  LIG22       0.0241
    176 H          -2.3732    8.7871   12.9985 H      22  LIG22       0.0241
    177 CL          1.7085    8.1468   16.8238 Cl     23  LIG23      -0.1257
    178 C           0.1660    7.2651   16.8238 C.3    23  LIG23       0.0198
    179 C          -0.9985    8.2329   16.8238 C.3    23  LIG23      -0.0517
    180 H           0.1414    6.6280   15.9352 H      23  LIG23       0.0427
    181 H           0.1414    6.6280   17.7123 H      23  LIG23       0.0427
    182 H          -1.9454    7.6836   16.8238 H      23  LIG23       0.0241
    183 H          -0.9812    8.8741   17.7112 H      23  LIG23       0.0241
    184 H          -0.9812    8.8741   15.9364 H      23  LIG23       0.0241
    185 CL          1.2462    6.6598   20.1228 Cl     24  LIG24      -0.1257
    186 C          -0.4032    7.3201   20.1228 C.3    24  LIG24       0.0198
    187 C          -0.3690    8.8338   20.1228 C.3    24  LIG24      -0.0517
    188 H          -0.9176    6.9433   19.2342 H      24  LIG24       0.0427
    189 H          -0.9176    6.9433   21.0113 H      24  LIG24       0.0427
    190 H          -1.3879    9.2341   20.1228 H      24  LIG24       0.0241
    191 H           0.1440    9.2189   21.0102 H      24  LIG24       0.0241
    192 H           0.1440    9.2189   19.2354 H      24  LIG24       0.0241
    193 CL          2.0355   11.9190   -1.1000 Cl     25  LIG25      -0.1257
    194 C           0.4930   11.0373   -1.1000 C.3    25  LIG25       0.0198
    195 C          -0.6715   12.0051   -1.1000 C.3    25  LIG25      -0.0517
    196 H           0.4684   10.4002   -1.9886 H      25  LIG25       0.0427
    197 H           0.4684   10.4002   -0.2115 H      25  LIG25       0.0427
    198 H          -1.6184   11.4558   -1.1000 H      25  LIG25       0.0241
    199 H          -0.6542   12.6463   -0.2126 H      25  LIG25       0.0241
    200 H          -0.6542   12.6463   -1.9874 H      25  LIG25       0.0241
    201 CL         -3.3373   10.1452    1.4906 Cl     26  LIG26      -0.1257
    202 C          -1.8060   10.7214    2.1832 C.3    26  LIG26       0.0198
    203 C          -1.7676   12.2350    2.2006 C.3    26  LIG26      -0.0517
    204 H          -1.7215   10.3192    3.1967 H      26  LIG26       0.0427
    205 H          -0.9891   10.3192    1.5775 H      26  LIG26       0.0427
    206 H          -0.8221   12.5834    2.6283 H      26  LIG26       0.0241
    207 H          -1.8510   12.6454    1.1889 H      26  LIG26       0.0241
    208 H          -2.5825   12.6454    2.8060 H      26  LIG26       0.0241
    209 CL         -1.0143   12.6455    5.7460 Cl     27  LIG27      -0.1257
    210 C          -1.3707   10.9049    5.7460 C.3    27  LIG27       0.0198
    211 C          -2.8664   10.6694    5.7460 C.3    27  LIG27      -0.0517
    212 H          -0.9085   10.4657    4.8574 H      27  LIG27       0.0427
    213 H          -0.9085   10.4657    6.6345 H      27  LIG27       0.0427
    214 H          -3.0792    9.5956    5.7460 H      27  LIG27       0.0241
    215 H          -3.3366   11.1058    6.6334 H      27  LIG27       0.0241
    216 H          -3.3366   11.1058    4.8586 H      27  LIG27       0.0241
    217 CL          4.6220   11.2631    7.2709 Cl     28  LIG28      -0.1257
    218 C           2.9484   10.6667    7.2709 C.3    28  LIG28       0.0198
    219 C           1.9724   11.8244    7.2709 C.3    28  LIG28      -0.0517
    220 H           2.8120   10.0439    6.3823 H      28  LIG28       0.0427
    221 H           2.8120   10.0439    8.1594 H      28  LIG28       0.0427
    222 H           0.9436   11.4504    7.2709 H      28  LIG28       0.0241
    223 H           2.1023   12.4526    8.1583 H      28  LIG28       0.0241
    224 H           2.1023   12.4526    6.3835 H      28  LIG28       0.0241
    225 CL          0.5985   11.9190   10.2019 Cl     29  LIG29      -0.1257
    226 C          -0.9440   11.0373   10.2019 C.3    29  LIG29       0.0198
    227 C          -2.1085   12.0051   10.2019 C.3    29  LIG29      -0.0517
    228 H          -0.9686   10.4002    9.3133 H      29  LIG29       0.0427
    229 H          -0.9686   10.4002   11.0904 H      29  LIG29       0.0427
    230 H          -3.0554   11.4558   10.2019 H      29  LIG29       0.0241
    231 H          -2.0912   12.6463   11.0893 H      29  LIG29       0.0241
    232 H          -2.0912   12.6463    9.3145 H      29  LIG29       0.0241
    233 CL          2.3895   11.9191   13.4868 Cl     30  LIG30      -0.1257
    234 C           0.8470   11.0374   13.4868 C.3    30  LIG30       0.0198
    235 C          -0.3175   12.0052   13.4868 C.3    30  LIG30      -0.0517
    236 H           0.8224   10.4003   12.5982 H      30  LIG30       0.0427
    237 H           0.8224   10.4003   14.3753 H      30  LIG30       0.0427
    238 H          -1.2644   11.4559   13.4868 H      30  LIG30       0.0241
    239 H          -0.3002   12.6464   14.3742 H      30  LIG30       0.0241
    240 H          -0.3002   12.6464   12.5994 H      30  LIG30       0.0241
    241 CL          0.6672   12.6456   16.9148 Cl     31  LIG31      -0.1257
    242 C          -0.2570   11.1282   16.9148 C.3    31  LIG31       0.0198
    243 C          -1.7442   11.4126   16.9148 C.3    31  LIG31      -0.0517
    244 H           0.0294   10.5586   16.0262 H      31  LIG31       0.0427
    245 H           0.0294   10.5586   17.8033 H      31  LIG31       0.0427
    246 H          -2.3077   10.4741   16.9148 H      31  LIG31       0.0241
    247 H          -2.0390   11.9823   17.8022 H      31  LIG31       0.0241
    248 H          -2.0390   11.9823   16.0274 H      31  LIG31       0.0241
    249 CL         -0.0078   11.9079   20.1228 Cl     32  LIG32      -0.1257
    250 C           1.7610   12.0755   20.1228 C.3    32  LIG32       0.0198
    251 C           2.4232   10.7138   20.1228 C.3    32  LIG32      -0.0517
    252 H           2.0460   12.6458   19.2342 H      32  LIG32       0.0427
    253 H           2.0460   12.6458   21.0113 H      32  LIG32       0.0427
    254 H           3.5123   10.8240   20.1228 H      32  LIG32       0.0241
    255 H           2.1432   10.1367   21.0102 H      32  LIG32       0.0241
    256 H           2.1432   10.1367   19.2354 H      32  LIG32       0.0241
    257 CL          9.6622    0.1862   -1.1000 Cl     33  LIG33      -0.1257
    258 C           8.1197   -0.6955   -1.1000 C.3    33  LIG33       0.0198
    259 C           6.9552    0.2723   -1.1000 C.3    33  LIG33      -0.0517
    260 H           8.0951   -1.3326   -1.9886 H      33  LIG33       0.0427
    261 H           8.0951   -1.3326   -0.2115 H      33  LIG33       0.0427
    262 H           6.0083   -0.2770   -1.1000 H      33  LIG33       0.0241
    263 H           6.9725    0.9135   -0.2126 H      33  LIG33       0.0241
    264 H           6.9725    0.9135   -1.9874 H      33  LIG33       0.0241
    265 CL          5.6082   -0.8348    1.3840 Cl     34  LIG34      -0.1257
    266 C           4.0657   -1.7165    1.3840 C.3    34  LIG34       0.0198
    267 C           2.9012   -0.7487    1.3840 C.3    34  LIG34      -0.0517
    268 H           4.0411   -2.3536    0.4954 H      34  LIG34       0.0427
    269 H           4.0411   -2.3536    2.2725 H      34  LIG34       0.0427
    270 H           1.9543   -1.2980    1.3840 H      34  LIG34       0.0241
    271 H           2.9185   -0.1075    2.2714 H      34  LIG34       0.0241
    272 H           2.9185   -0.1075    0.4966 H      34  LIG34       0.0241
    273 CL          7.9512   -0.8338    4.5179 Cl     35  LIG35      -0.1257
    274 C           6.4087   -1.7155    4.5179 C.3    35  LIG35       0.0198
    275 C           5.2442   -0.7477    4.5179 C.3    35  LIG35      -0.0517
    276 H           6.3841   -2.3526    3.6293 H      35  LIG35       0.0427
    277 H           6.3841   -2.3526    5.4064 H      35  LIG35       0.0427
    278 H           4.2973   -1.2970    4.5179 H      35  LIG35       0.0241
    279 H           5.2615   -0.1065    5.4053 H      35  LIG35       0.0241
    280 H           5.2615   -0.1065    3.6305 H      35  LIG35       0.0241
    281 CL          6.3162   -0.8348    7.6229 Cl     36  LIG36      -0.1257
    282 C           4.7737   -1.7165    7.6229 C.3    36  LIG36       0.0198
    283 C           3.6092   -0.7487    7.6229 C.3    36  LIG36      -0.0517
    284 H           4.7491   -2.3536    6.7343 H      36  LIG36       0.0427
    285 H           4.7491   -2.3536    8.5114 H      36  LIG36       0.0427
    286 H           2.6623   -1.2980    7.6229 H      36  LIG36       0.0241
    287 H           3.6265   -0.1075    8.5103 H      36  LIG36       0.0241
    288 H           3.6265   -0.1075    6.7355 H      36  LIG36       0.0241
    289 CL          7.8383   -0.8338   10.7569 Cl     37  LIG37      -0.1257
    290 C           6.2958   -1.7155   10.7569 C.3    37  LIG37       0.0198
    291 C           5.1313   -0.7477   10.7569 C.3    37  LIG37      -0.0517
    292 H           6.2712   -2.3526    9.8683 H      37  LIG37       0.0427
    293 H           6.2712   -2.3526   11.6454 H      37  LIG37       0.0427
    294 H           4.1844   -1.2970   10.7569 H      37  LIG37       0.0241
    295 H           5.1486   -0.1065   11.6443 H      37  LIG37       0.0241
    296 H           5.1486   -0.1065    9.8695 H      37  LIG37       0.0241
    297 CL          9.3923   -0.8348   13.8637 Cl     38  LIG38      -0.1257
    298 C           7.8498   -1.7165   13.8637 C.3    38  LIG38       0.0198
    299 C           6.6853   -0.7487   13.8637 C.3    38  LIG38      -0.0517
    300 H           7.8252   -2.3536   12.9751 H      38  LIG38       0.0427
    301 H           7.8252   -2.3536   14.7522 H      38  LIG38       0.0427
    302 H           5.7384   -1.2980   13.8637 H      38  LIG38       0.0241
    303 H           6.7026   -0.1075   14.7511 H      38  LIG38       0.0241
    304 H           6.7026   -0.1075   12.9763 H      38  LIG38       0.0241
    305 CL          6.5237   -1.7834   17.3268 Cl     39  LIG39      -0.1257
    306 C           7.5658   -0.3444   17.3268 C.3    39  LIG39       0.0198
    307 C           9.0257   -0.7462   17.3268 C.3    39  LIG39      -0.0517
    308 H           7.3257    0.2463   16.4382 H      39  LIG39       0.0427
    309 H           7.3257    0.2463   18.2153 H      39  LIG39       0.0427
    310 H           9.6620    0.1445   17.3268 H      39  LIG39       0.0241
    311 H           9.2741   -1.3376   18.2142 H      39  LIG39       0.0241
    312 H           9.2741   -1.3376   16.4394 H      39  LIG39       0.0241
    313 CL          6.3702   -0.8348   20.1228 Cl     40  LIG40      -0.1257
    314 C           4.8277   -1.7165   20.1228 C.3    40  LIG40       0.0198
    315 C           3.6632   -0.7487   20.1228 C.3    40  LIG40      -0.0517
    316 H           4.8031   -2.3536   19.2342 H      40  LIG40       0.0427
    317 H           4.8031   -2.3536   21.0113 H      40  LIG40       0.0427
    318 H           2.7163   -1.2980   20.1228 H      40  LIG40       0.0241
    319 H           3.6805   -0.1075   21.0102 H      40  LIG40       0.0241
    320 H           3.6805   -0.1075   19.2354 H      40  LIG40       0.0241
    321 CL          9.6623    4.1895   -1.1000 Cl     41  LIG41      -0.1257
    322 C           8.1198    3.3078   -1.1000 C.3    41  LIG41       0.0198
    323 C           6.9553    4.2756   -1.1000 C.3    41  LIG41      -0.0517
    324 H           8.0952    2.6707   -1.9886 H      41  LIG41       0.0427
    325 H           8.0952    2.6707   -0.2115 H      41  LIG41       0.0427
    326 H           6.0084    3.7263   -1.1000 H      41  LIG41       0.0241
    327 H           6.9726    4.9168   -0.2126 H      41  LIG41       0.0241
    328 H           6.9726    4.9168   -1.9874 H      41  LIG41       0.0241
    329 CL          6.3642    3.0935    1.5110 Cl     42  LIG42      -0.1257
    330 C           4.8217    2.2118    1.5110 C.3    42  LIG42       0.0198
    331 C           3.6572    3.1796    1.5110 C.3    42  LIG42      -0.0517
    332 H           4.7971    1.5747    0.6224 H      42  LIG42       0.0427
    333 H           4.7971    1.5747    2.3995 H      42  LIG42       0.0427
    334 H           2.7103    2.6303    1.5110 H      42  LIG42       0.0241
    335 H           3.6745    3.8208    2.3984 H      42  LIG42       0.0241
    336 H           3.6745    3.8208    0.6236 H      42  LIG42       0.0241
    337 CL          8.1063    3.2065    4.5269 Cl     43  LIG43      -0.1257
    338 C           6.5638    2.3248    4.5269 C.3    43  LIG43       0.0198
    339 C           5.3993    3.2926    4.5269 C.3    43  LIG43      -0.0517
    340 H           6.5392    1.6877    3.6383 H      43  LIG43       0.0427
    341 H           6.5392    1.6877    5.4154 H      43  LIG43       0.0427
    342 H           4.4524    2.7433    4.5269 H      43  LIG43       0.0241
    343 H           5.4166    3.9338    5.4143 H      43  LIG43       0.0241
    344 H           5.4166    3.9338    3.6395 H      43  LIG43       0.0241
    345 CL          6.4782    3.1945    7.6229 Cl     44  LIG44      -0.1257
    346 C           4.9357    2.3128    7.6229 C.3    44  LIG44       0.0198
    347 C           3.7712    3.2806    7.6229 C.3    44  LIG44      -0.0517
    348 H           4.9111    1.6757    6.7343 H      44  LIG44       0.0427
    349 H           4.9111    1.6757    8.5114 H      44  LIG44       0.0427
    350 H           2.8243    2.7313    7.6229 H      44  LIG44       0.0241
    351 H           3.7885    3.9218    8.5103 H      44  LIG44       0.0241
    352 H           3.7885    3.9218    6.7355 H      44  LIG44       0.0241
    353 CL          8.1393    3.1285   10.7829 Cl     45  LIG45      -0.1257
    354 C           6.5968    2.2468   10.7829 C.3    45  LIG45       0.0198
    355 C           5.4323    3.2146   10.7829 C.3    45  LIG45      -0.0517
    356 H           6.5722    1.6097    9.8943 H      45  LIG45       0.0427
    357 H           6.5722    1.6097   11.6714 H      45  LIG45       0.0427
    358 H           4.4854    2.6653   10.7829 H      45  LIG45       0.0241
    359 H           5.4496    3.8558   11.6703 H      45  LIG45       0.0241
    360 H           5.4496    3.8558    9.8955 H      45  LIG45       0.0241
    361 CL          9.6623    3.1095   13.9878 Cl     46  LIG46      -0.1257
    362 C           8.1198    2.2278   13.9878 C.3    46  LIG46       0.0198
    363 C           6.9553    3.1956   13.9878 C.3    46  LIG46      -0.0517
    364 H           8.0952    1.5907   13.0992 H      46  LIG46       0.0427
    365 H           8.0952    1.5907   14.8763 H      46  LIG46       0.0427
    366 H           6.0084    2.6463   13.9878 H      46  LIG46       0.0241
    367 H           6.9726    3.8368   14.8752 H      46  LIG46       0.0241
    368 H           6.9726    3.8368   13.1004 H      46  LIG46       0.0241
    369 CL          6.1653    3.4705   17.2842 Cl     47  LIG47      -0.1257
    370 C           4.5771    2.7616   16.9208 C.3    47  LIG47       0.0198
    371 C           4.5440    1.3013   17.3197 C.3    47  LIG47      -0.0517
    372 H           3.8203    3.3308   17.4679 H      47  LIG47       0.0427
    373 H           4.3940    2.8756   15.8487 H      47  LIG47       0.0427
    374 H           3.5634    0.8707   17.0933 H      47  LIG47       0.0241
    375 H           5.2989    0.7244   16.7754 H      47  LIG47       0.0241
    376 H           4.7259    1.1790   18.3924 H      47  LIG47       0.0241
    377 CL          7.8612    3.4195   20.1228 Cl     48  LIG48      -0.1257
    378 C           6.3187    2.5378   20.1228 C.3    48  LIG48       0.0198
    379 C           5.1542    3.5056   20.1228 C.3    48  LIG48      -0.0517
    380 H           6.2941    1.9007   19.2342 H      48  LIG48       0.0427
    381 H           6.2941    1.9007   21.0113 H      48  LIG48       0.0427
    382 H           4.2073    2.9563   20.1228 H      48  LIG48       0.0241
    383 H           5.1715    4.1468   21.0102 H      48  LIG48       0.0241
    384 H           5.1715    4.1468   19.2354 H      48  LIG48       0.0241
    385 CL          9.6622    7.6837   -0.4351 Cl     49  LIG49      -0.1257
    386 C           8.1197    7.6486   -1.3161 C.3    49  LIG49       0.0198
    387 C           6.9552    7.6871   -0.3490 C.3    49  LIG49      -0.0517
    388 H           8.0951    8.5111   -1.9880 H      49  LIG49       0.0427
    389 H           8.0951    6.7354   -1.9173 H      49  LIG49       0.0427
    390 H           6.0083    7.6652   -0.8979 H      49  LIG49       0.0241
    391 H           6.9725    6.8260    0.3270 H      49  LIG49       0.0241
    392 H           6.9725    8.5993    0.2563 H      49  LIG49       0.0241
    393 CL          7.2292    7.9877    2.4310 Cl     50  LIG50      -0.1257
    394 C           5.6867    7.1060    2.4310 C.3    50  LIG50       0.0198
    395 C           4.5222    8.0738    2.4310 C.3    50  LIG50      -0.0517
    396 H           5.6621    6.4689    1.5424 H      50  LIG50       0.0427
    397 H           5.6621    6.4689    3.3195 H      50  LIG50       0.0427
    398 H           3.5753    7.5245    2.4310 H      50  LIG50       0.0241
    399 H           4.5395    8.7150    3.3184 H      50  LIG50       0.0241
    400 H           4.5395    8.7150    1.5436 H      50  LIG50       0.0241
    401 CL          9.1033    7.8327    5.3219 Cl     51  LIG51      -0.1257
    402 C           7.5608    6.9510    5.3219 C.3    51  LIG51       0.0198
    403 C           6.3963    7.9188    5.3219 C.3    51  LIG51      -0.0517
    404 H           7.5362    6.3139    4.4333 H      51  LIG51       0.0427
    405 H           7.5362    6.3139    6.2104 H      51  LIG51       0.0427
    406 H           5.4494    7.3695    5.3219 H      51  LIG51       0.0241
    407 H           6.4136    8.5600    6.2093 H      51  LIG51       0.0241
    408 H           6.4136    8.5600    4.4345 H      51  LIG51       0.0241
    409 CL          7.2802    7.6748    8.2750 Cl     52  LIG52      -0.1257
    410 C           5.7377    6.7931    8.2750 C.3    52  LIG52       0.0198
    411 C           4.5732    7.7609    8.2750 C.3    52  LIG52      -0.0517
    412 H           5.7131    6.1560    7.3864 H      52  LIG52       0.0427
    413 H           5.7131    6.1560    9.1635 H      52  LIG52       0.0427
    414 H           3.6263    7.2116    8.2750 H      52  LIG52       0.0241
    415 H           4.5905    8.4021    9.1624 H      52  LIG52       0.0241
    416 H           4.5905    8.4021    7.3876 H      52  LIG52       0.0241
    417 CL          9.1563    7.7447   11.1979 Cl     53  LIG53      -0.1257
    418 C           7.6138    6.8630   11.1979 C.3    53  LIG53       0.0198
    419 C           6.4493    7.8308   11.1979 C.3    53  LIG53      -0.0517
    420 H           7.5892    6.2259   10.3093 H      53  LIG53       0.0427
    421 H           7.5892    6.2259   12.0864 H      53  LIG53       0.0427
    422 H           5.5024    7.2815   11.1979 H      53  LIG53       0.0241
    423 H           6.4666    8.4720   12.0853 H      53  LIG53       0.0241
    424 H           6.4666    8.4720   10.3105 H      53  LIG53       0.0241
    425 CL          5.8562    6.2688   13.9738 Cl     54  LIG54      -0.1257
    426 C           4.3137    5.3871   13.9738 C.3    54  LIG54       0.0198
    427 C           3.1492    6.3549   13.9738 C.3    54  LIG54      -0.0517
    428 H           4.2891    4.7500   13.0852 H      54  LIG54       0.0427
    429 H           4.2891    4.7500   14.8623 H      54  LIG54       0.0427
    430 H           2.2023    5.8056   13.9738 H      54  LIG54       0.0241
    431 H           3.1665    6.9961   14.8612 H      54  LIG54       0.0241
    432 H           3.1665    6.9961   13.0864 H      54  LIG54       0.0241
    433 CL          7.3172    7.4417   17.1848 Cl     55  LIG55      -0.1257
    434 C           5.7747    6.5600   17.1848 C.3    55  LIG55       0.0198
    435 C           4.6102    7.5278   17.1848 C.3    55  LIG55      -0.0517
    436 H           5.7501    5.9229   16.2962 H      55  LIG55       0.0427
    437 H           5.7501    5.9229   18.0733 H      55  LIG55       0.0427
    438 H           3.6633    6.9785   17.1848 H      55  LIG55       0.0241
    439 H           4.6275    8.1690   18.0722 H      55  LIG55       0.0241
    440 H           4.6275    8.1690   16.2974 H      55  LIG55       0.0241
    441 CL          9.0073    7.3428   20.1226 Cl     56  LIG56      -0.1257
    442 C           7.4648    6.4611   20.1226 C.3    56  LIG56       0.0198
    443 C           6.3003    7.4289   20.1226 C.3    56  LIG56      -0.0517
    444 H           7.4402    5.8240   19.2340 H      56  LIG56       0.0427
    445 H           7.4402    5.8240   21.0111 H      56  LIG56       0.0427
    446 H           5.3534    6.8796   20.1226 H      56  LIG56       0.0241
    447 H           6.3176    8.0701   21.0100 H      56  LIG56       0.0241
    448 H           6.3176    8.0701   19.2352 H      56  LIG56       0.0241
    449 CL          9.2613   11.9190   -1.1000 Cl     57  LIG57      -0.1257
    450 C           7.7187   11.0373   -1.1000 C.3    57  LIG57       0.0198
    451 C           6.5542   12.0051   -1.1000 C.3    57  LIG57      -0.0517
    452 H           7.6941   10.4002   -1.9886 H      57  LIG57       0.0427
    453 H           7.6941   10.4002   -0.2115 H      57  LIG57       0.0427
    454 H           5.6073   11.4558   -1.1000 H      57  LIG57       0.0241
    455 H           6.5715   12.6463   -0.2126 H      57  LIG57       0.0241
    456 H           6.5715   12.6463   -1.9874 H      57  LIG57       0.0241
    457 CL          7.4413   11.9181    1.8060 Cl     58  LIG58      -0.1257
    458 C           5.8988   11.0364    1.8060 C.3    58  LIG58       0.0198
    459 C           4.7343   12.0042    1.8060 C.3    58  LIG58      -0.0517
    460 H           5.8742   10.3993    0.9174 H      58  LIG58       0.0427
    461 H           5.8742   10.3993    2.6945 H      58  LIG58       0.0427
    462 H           3.7874   11.4549    1.8060 H      58  LIG58       0.0241
    463 H           4.7516   12.6454    2.6934 H      58  LIG58       0.0241
    464 H           4.7516   12.6454    0.9186 H      58  LIG58       0.0241
    465 CL          9.1693   11.9190    4.8009 Cl     59  LIG59      -0.1257
    466 C           7.6268   11.0373    4.8009 C.3    59  LIG59       0.0198
    467 C           6.4623   12.0051    4.8009 C.3    59  LIG59      -0.0517
    468 H           7.6022   10.4002    3.9123 H      59  LIG59       0.0427
    469 H           7.6022   10.4002    5.6894 H      59  LIG59       0.0427
    470 H           5.5154   11.4558    4.8009 H      59  LIG59       0.0241
    471 H           6.4796   12.6463    5.6883 H      59  LIG59       0.0241
    472 H           6.4796   12.6463    3.9135 H      59  LIG59       0.0241
    473 CL          9.6619   10.1452    8.4189 Cl     60  LIG60      -0.1257
    474 C           7.9812   10.7214    8.4189 C.3    60  LIG60       0.0198
    475 C           7.9391   12.2350    8.4189 C.3    60  LIG60      -0.0517
    476 H           7.4865   10.3192    7.5303 H      60  LIG60       0.0427
    477 H           7.4865   10.3192    9.3074 H      60  LIG60       0.0427
    478 H           6.9013   12.5834    8.4189 H      60  LIG60       0.0241
    479 H           8.4321   12.6454    9.3063 H      60  LIG60       0.0241
    480 H           8.4321   12.6454    7.5315 H      60  LIG60       0.0241
    481 CL          6.9772   11.9190   11.1220 Cl     61  LIG61      -0.1257
    482 C           5.4347   11.0373   11.1220 C.3    61  LIG61       0.0198
    483 C           4.2702   12.0051   11.1220 C.3    61  LIG61      -0.0517
    484 H           5.4101   10.4002   10.2334 H      61  LIG61       0.0427
    485 H           5.4101   10.4002   12.0105 H      61  LIG61       0.0427
    486 H           3.3233   11.4558   11.1220 H      61  LIG61       0.0241
    487 H           4.2875   12.6463   12.0094 H      61  LIG61       0.0241
    488 H           4.2875   12.6463   10.2346 H      61  LIG61       0.0241
    489 CL          9.6622    9.5080   14.2118 Cl     62  LIG62      -0.1257
    490 C           8.1197    8.6263   14.2118 C.3    62  LIG62       0.0198
    491 C           6.9552    9.5941   14.2118 C.3    62  LIG62      -0.0517
    492 H           8.0951    7.9892   13.3232 H      62  LIG62       0.0427
    493 H           8.0951    7.9892   15.1003 H      62  LIG62       0.0427
    494 H           6.0083    9.0448   14.2118 H      62  LIG62       0.0241
    495 H           6.9725   10.2353   15.0992 H      62  LIG62       0.0241
    496 H           6.9725   10.2353   13.3244 H      62  LIG62       0.0241
    497 CL          6.4922   11.9190   16.7077 Cl     63  LIG63      -0.1257
    498 C           4.9497   11.0373   16.7077 C.3    63  LIG63       0.0198
    499 C           3.7852   12.0051   16.7077 C.3    63  LIG63      -0.0517
    500 H           4.9251   10.4002   15.8191 H      63  LIG63       0.0427
    501 H           4.9251   10.4002   17.5962 H      63  LIG63       0.0427
    502 H           2.8383   11.4558   16.7077 H      63  LIG63       0.0241
    503 H           3.8025   12.6463   17.5951 H      63  LIG63       0.0241
    504 H           3.8025   12.6463   15.8203 H      63  LIG63       0.0241
    505 CL          9.6620   10.0721   19.7208 Cl     64  LIG64      -0.1257
    506 C           8.0125   10.7323   19.7208 C.3    64  LIG64       0.0198
    507 C           8.0468   12.2461   19.7208 C.3    64  LIG64      -0.0517
    508 H           7.4982   10.3556   18.8322 H      64  LIG64       0.0427
    509 H           7.4982   10.3556   20.6093 H      64  LIG64       0.0427
    510 H           7.0279   12.6464   19.7208 H      64  LIG64       0.0241
    511 H           8.5598   12.6311   20.6082 H      64  LIG64       0.0241
    512 H           8.5598   12.6311   18.8334 H      64  LIG64       0.0241
@<TRIPOS>BOND
     1     1     2    1
     2     2     3    1
     3     2     4    1
     4     2     5    1
     5     3     6    1
     6     3     7    1
     7     3     8    1
     8     9    10    1
     9    10    11    1
    10    10    12    1
    11    10    13    1
    12    11    14    1
    13    11    15    1
    14    11    16    1
    15    17    18    1
    16    18    19    1
    17    18    20    1
    18    18    21    1
    19    19    22    1
    20    19    23    1
    21    19    24    1
    22    25    26    1
    23    26    27    1
    24    26    28    1
    25    26    29    1
    26    27    30    1
    27    27    31    1
    28    27    32    1
    29    33    34    1
    30    34    35    1
    31    34    36    1
    32    34    37    1
    33    35    38    1
    34    35    39    1
    35    35    40    1
    36    41    42    1
    37    42    43    1
    38    42    44    1
    39    42    45    1
    40    43    46    1
    41    43    47    1
    42    43    48    1
    43    49    50    1
    44    50    51    1
    45    50    52    1
    46    50    53    1
    47    51    54    1
    48    51    55    1
    49    51    56    1
    50    57    58    1
    51    58    59    1
    52    58    60    1
    53    58    61    1
    54    59    62    1
    55    59    63    1
    56    59    64    1
    57    65    66    1
    58    66    67    1
    59    66    68    1
    60    66    69    1
    61    67    70    1
    62    67    71    1
    63    67    72    1
    64    73    74    1
    65    74    75    1
    66    74    76    1
    67    74    77    1
    68    75    78    1
    69    75    79    1
    70    75    80    1
    71    81    82    1
    72    82    83    1
    73    82    84    1
    74    82    85    1
    75    83    86    1
    76    83    87    1
    77    83    88    1
    78    89    90    1
    79    90    91    1
    80    90    92    1
    81    90    93    1
    82    91    94    1
    83    91    95    1
    84    91    96    1
    85    97    98    1
    86    98    99    1
    87    98   100    1
    88    98   101    1
    89    99   102    1
    90    99   103    1
    91    99   104    1
    92   105   106    1
    93   106   107    1
    94   106   108    1
    95   106   109    1
    96   107   110    1
    97   107   111    1
    98   107   112    1
    99   113   114    1
   100   114   115    1
   101   114   116    1
   102   114   117    1
   103   115   118    1
   104   115   119    1
   105   115   120    1
   106   121   122    1
   107   122   123    1
   108   122   124    1
   109   122   125    1
   110   123   126    1
   111   123   127    1
   112   123   128    1
   113   129   130    1
   114   130   131    1
   115   130   132    1
   116   130   133    1
   117   131   134    1
   118   131   135    1
   119   131   136    1
   120   137   138    1
   121   138   139    1
   122   138   140    1
   123   138   141    1
   124   139   142    1
   125   139   143    1
   126   139   144    1
   127   145   146    1
   128   146   147    1
   129   146   148    1
   130   146   149    1
   131   147   150    1
   132   147   151    1
   133   147   152    1
   134   153   154    1
   135   154   155    1
   136   154   156    1
   137   154   157    1
   138   155   158    1
   139   155   159    1
   140   155   160    1
   141   161   162    1
   142   162   163    1
   143   162   164    1
   144   162   165    1
   145   163   166    1
   146   163   167    1
   147   163   168    1
   148   169   170    1
   149   170   171    1
   150   170   172    1
   151   170   173    1
   152   171   174    1
   153   171   175    1
   154   171   176    1
   155   177   178    1
   156   178   179    1
   157   178   180    1
   158   178   181    1
   159   179   182    1
   160   179   183    1
   161   179   184    1
   162   185   186    1
   163   186   187    1
   164   186   188    1
   165   186   189    1
   166   187   190    1
   167   187   191    1
   168   187   192    1
   169   193   194    1
   170   194   195    1
   171   194   196    1
   172   194   197    1
   173   195   198    1
   174   195   199    1
   175   195   200    1
   176   201   202    1
   177   202   203    1
   178   202   204    1
   179   202   205    1
   180   203   206    1
   181   203   207    1
   182   203   208    1
   183   209   210    1
   184   210   211    1
   185   210   212    1
   186   210   213    1
   187   211   214    1
   188   211   215    1
   189   211   216    1
   190   217   218    1
   191   218   219    1
   192   218   220    1
   193   218   221    1
   194   219   222    1
   195   219   223    1
   196   219   224    1
   197   225   226    1
   198   226   227    1
   199   226   228    1
   200   226   229    1
   201   227   230    1
   202   227   231    1
   203   227   232    1
   204   233   234    1
   205   234   235    1
   206   234   236    1
   207   234   237    1
   208   235   238    1
   209   235   239    1
   210   235   240    1
   211   241   242    1
   212   242   243    1
   213   242   244    1
   214   242   245    1
   215   243   246    1
   216   243   247    1
   217   243   248    1
   218   249   250    1
   219   250   251    1
   220   250   252    1
   221   250   253    1
   222   251   254    1
   223   251   255    1
   224   251   256    1
   225   257   258    1
   226   258   259    1
   227   258   260    1
   228   258   261    1
   229   259   262    1
   230   259   263    1
   231   259   264    1
   232   265   266    1
   233   266   267    1
   234   266   268    1
   235   266   269    1
   236   267   270    1
   237   267   271    1
   238   267   272    1
   239   273   274    1
   240   274   275    1
   241   274   276    1
   242   274   277    1
   243   275   278    1
   244   275   279    1
   245   275   280    1
   246   281   282    1
   247   282   283    1
   248   282   284    1
   249   282   285    1
   250   283   286    1
   251   283   287    1
   252   283   288    1
   253   289   290    1
   254   290   291    1
   255   290   292    1
   256   290   293    1
   257   291   294    1
   258   291   295    1
   259   291   296    1
   260   297   298    1
   261   298   299    1
   262   298   300    1
   263   298   301    1
   264   299   302    1
   265   299   303    1
   266   299   304    1
   267   305   306    1
   268   306   307    1
   269   306   308    1
   270   306   309    1
   271   307   310    1
   272   307   311    1
   273   307   312    1
   274   313   314    1
   275   314   315    1
   276   314   316    1
   277   314   317    1
   278   315   318    1
   279   315   319    1
   280   315   320    1
   281   321   322    1
   282   322   323    1
   283   322   324    1
   284   322   325    1
   285   323   326    1
   286   323   327    1
   287   323   328    1
   288   329   330    1
   289   330   331    1
   290   330   332    1
   291   330   333    1
   292   331   334    1
   293   331   335    1
   294   331   336    1
   295   337   338    1
   296   338   339    1
   297   338   340    1
   298   338   341    1
   299   339   342    1
   300   339   343    1
   301   339   344    1
   302   345   346    1
   303   346   347    1
   304   346   348    1
   305   346   349    1
   306   347   350    1
   307   347   351    1
   308   347   352    1
   309   353   354    1
   310   354   355    1
   311   354   356    1
   312   354   357    1
   313   355   358    1
   314   355   359    1
   315   355   360    1
   316   361   362    1
   317   362   363    1
   318   362   364    1
   319   362   365    1
   320   363   366    1
   321   363   367    1
   322   363   368    1
   323   369   370    1
   324   370   371    1
   325   370   372    1
   326   370   373    1
   327   371   374    1
   328   371   375    1
   329   371   376    1
   330   377   378    1
   331   378   379    1
   332   378   380    1
   333   378   381    1
   334   379   382    1
   335   379   383    1
   336   379   384    1
   337   385   386    1
   338   386   387    1
   339   386   388    1
   340   386   389    1
   341   387   390    1
   342   387   391    1
   343   387   392    1
   344   393   394    1
   345   394   395    1
   346   394   396    1
   347   394   397    1
   348   395   398    1
   349   395   399    1
   350   395   400    1
   351   401   402    1
   352   402   403    1
   353   402   404    1
   354   402   405    1
   355   403   406    1
   356   403   407    1
   357   403   408    1
   358   409   410    1
   359   410   411    1
   360   410   412    1
   361   410   413    1
   362   411   414    1
   363   411   415    1
   364   411   416    1
   365   417   418    1
   366   418   419    1
   367   418   420    1
   368   418   421    1
   369   419   422    1
   370   419   423    1
   371   419   424    1
   372   425   426    1
   373   426   427    1
   374   426   428    1
   375   426   429    1
   376   427   430    1
   377   427   431    1
   378   427   432    1
   379   433   434    1
   380   434   435    1
   381   434   436    1
   382   434   437    1
   383   435   438    1
   384   435   439    1
   385   435   440    1
   386   441   442    1
   387   442   443    1
   388   442   444    1
   389   442   445    1
   390   443   446    1
   391   443   447    1
   392   443   448    1
   393   449   450    1
   394   450   451    1
   395   450   452    1
   396   450   453    1
   397   451   454    1
   398   451   455    1
   399   451   456    1
   400   457   458    1
   401   458   459    1
   402   458   460    1
   403   458   461    1
   404   459   462    1
   405   459   463    1
   406   459   464    1
   407   465   466    1
   408   466   467    1
   409   466   468    1
   410   466   469    1
   411   467   470    1
   412   467   471    1
   413   467   472    1
   414   473   474    1
   415   474   475    1
   416   474   476    1
   417   474   477    1
   418   475   478    1
   419   475   479    1
   420   475   480    1
   421   481   482    1
   422   482   483    1
   423   482   484    1
   424   482   485    1
   425   483   486    1
   426   483   487    1
   427   483   488    1
   428   489   490    1
   429   490   491    1
   430   490   492    1
   431   490   493    1
   432   491   494    1
   433   491   495    1
   434   491   496    1
   435   497   498    1
   436   498   499    1
   437   498   500    1
   438   498   501    1
   439   499   502    1
   440   499   503    1
   441   499   504    1
   442   505   506    1
   443   506   507    1
   444   506   508    1
   445   506   509    1
   446   507   510    1
   447   507   511    1
   448   507   512    1
