@<TRIPOS>MOLECULE
*****
 960 840 0 0 0
SMALL
GASTEIGER

@<TRIPOS>ATOM
      1 CL          0.3175   -0.8338   -1.1000 Cl      1  UNL1       -0.1257
      2 C          -1.2250   -1.7155   -1.1000 C.3     1  UNL1        0.0198
      3 C          -2.3895   -0.7477   -1.1000 C.3     1  UNL1       -0.0517
      4 H          -1.2496   -2.3526   -1.9886 H       1  UNL1        0.0427
      5 H          -1.2496   -2.3526   -0.2115 H       1  UNL1        0.0427
      6 H          -3.3364   -1.2970   -1.1000 H       1  UNL1        0.0241
      7 H          -2.3722   -0.1065   -0.2126 H       1  UNL1        0.0241
      8 H          -2.3722   -0.1065   -1.9874 H       1  UNL1        0.0241
      9 CL          0.3175   -0.8348    2.4678 Cl      2  UNL2       -0.1257
     10 C          -1.2250   -1.7165    2.4678 C.3     2  UNL2        0.0198
     11 C          -2.3895   -0.7487    2.4678 C.3     2  UNL2       -0.0517
     12 H          -1.2496   -2.3536    1.5792 H       2  UNL2        0.0427
     13 H          -1.2496   -2.3536    3.3563 H       2  UNL2        0.0427
     14 H          -3.3364   -1.2980    2.4678 H       2  UNL2        0.0241
     15 H          -2.3722   -0.1075    3.3552 H       2  UNL2        0.0241
     16 H          -2.3722   -0.1075    1.5804 H       2  UNL2        0.0241
     17 CL         -0.6579   -2.3529    5.9006 Cl      3  UNL3       -0.1257
     18 C          -1.1374   -0.6421    5.9006 C.3     3  UNL3        0.0198
     19 C           0.0849    0.2516    5.9006 C.3     3  UNL3       -0.0517
     20 H          -1.7493   -0.4631    5.0120 H       3  UNL3        0.0427
     21 H          -1.7493   -0.4631    6.7891 H       3  UNL3        0.0427
     22 H          -0.2172    1.3038    5.9006 H       3  UNL3        0.0241
     23 H           0.7026    0.0787    6.7880 H       3  UNL3        0.0241
     24 H           0.7026    0.0787    5.0132 H       3  UNL3        0.0241
     25 CL          0.3165   -0.8348    9.2675 Cl      4  UNL4       -0.1257
     26 C          -1.2260   -1.7165    9.2675 C.3     4  UNL4        0.0198
     27 C          -2.3905   -0.7487    9.2675 C.3     4  UNL4       -0.0517
     28 H          -1.2506   -2.3536    8.3789 H       4  UNL4        0.0427
     29 H          -1.2506   -2.3536   10.1560 H       4  UNL4        0.0427
     30 H          -3.3374   -1.2980    9.2675 H       4  UNL4        0.0241
     31 H          -2.3732   -0.1075   10.1549 H       4  UNL4        0.0241
     32 H          -2.3732   -0.1075    8.3801 H       4  UNL4        0.0241
     33 CL         -0.3760   -0.7132   14.4938 Cl      5  UNL5       -0.1257
     34 C          -1.8759   -1.2613   13.7149 C.3     5  UNL5        0.0198
     35 C          -2.0059   -0.6597   12.3314 C.3     5  UNL5       -0.0517
     36 H          -1.8494   -2.3534   13.6625 H       5  UNL5        0.0427
     37 H          -2.7147   -0.9613   14.3491 H       5  UNL5        0.0427
     38 H          -2.9316   -1.0011   11.8572 H       5  UNL5        0.0241
     39 H          -2.0338    0.4340   12.3757 H       5  UNL5        0.0241
     40 H          -1.1696   -0.9562   11.6899 H       5  UNL5        0.0241
     41 CL          0.3175   -0.8338   17.1221 Cl      6  UNL6       -0.1257
     42 C          -1.2250   -1.7155   17.1221 C.3     6  UNL6        0.0198
     43 C          -2.3895   -0.7477   17.1221 C.3     6  UNL6       -0.0517
     44 H          -1.2496   -2.3526   16.2335 H       6  UNL6        0.0427
     45 H          -1.2496   -2.3526   18.0106 H       6  UNL6        0.0427
     46 H          -3.3364   -1.2970   17.1221 H       6  UNL6        0.0241
     47 H          -2.3722   -0.1065   18.0095 H       6  UNL6        0.0241
     48 H          -2.3722   -0.1065   16.2347 H       6  UNL6        0.0241
     49 CL          0.3165    2.8118   -1.1000 Cl      7  UNL7       -0.1257
     50 C          -1.2260    1.9301   -1.1000 C.3     7  UNL7        0.0198
     51 C          -2.3905    2.8979   -1.1000 C.3     7  UNL7       -0.0517
     52 H          -1.2506    1.2930   -1.9886 H       7  UNL7        0.0427
     53 H          -1.2506    1.2930   -0.2115 H       7  UNL7        0.0427
     54 H          -3.3374    2.3486   -1.1000 H       7  UNL7        0.0241
     55 H          -2.3732    3.5391   -0.2126 H       7  UNL7        0.0241
     56 H          -2.3732    3.5391   -1.9874 H       7  UNL7        0.0241
     57 CL          0.3165    3.5398    2.5228 Cl      8  UNL8       -0.1257
     58 C          -1.2260    2.6581    2.5228 C.3     8  UNL8        0.0198
     59 C          -2.3905    3.6259    2.5228 C.3     8  UNL8       -0.0517
     60 H          -1.2506    2.0210    1.6342 H       8  UNL8        0.0427
     61 H          -1.2506    2.0210    3.4113 H       8  UNL8        0.0427
     62 H          -3.3374    3.0766    2.5228 H       8  UNL8        0.0241
     63 H          -2.3732    4.2671    3.4102 H       8  UNL8        0.0241
     64 H          -2.3732    4.2671    1.6354 H       8  UNL8        0.0241
     65 CL         -3.1268    6.0026    5.7896 Cl      9  UNL9       -0.1257
     66 C          -1.3580    6.1703    5.7896 C.3     9  UNL9        0.0198
     67 C          -0.6958    4.8086    5.7896 C.3     9  UNL9       -0.0517
     68 H          -1.0730    6.7406    4.9010 H       9  UNL9        0.0427
     69 H          -1.0730    6.7406    6.6781 H       9  UNL9        0.0427
     70 H           0.3933    4.9188    5.7896 H       9  UNL9        0.0241
     71 H          -0.9758    4.2315    6.6770 H       9  UNL9        0.0241
     72 H          -0.9758    4.2315    4.9022 H       9  UNL9        0.0241
     73 CL          0.3175    2.7918    8.6915 Cl     10  UNL10      -0.1257
     74 C          -1.2250    1.9101    8.6915 C.3    10  UNL10       0.0198
     75 C          -2.3895    2.8779    8.6915 C.3    10  UNL10      -0.0517
     76 H          -1.2496    1.2730    7.8029 H      10  UNL10       0.0427
     77 H          -1.2496    1.2730    9.5800 H      10  UNL10       0.0427
     78 H          -3.3364    2.3286    8.6915 H      10  UNL10       0.0241
     79 H          -2.3722    3.5191    9.5789 H      10  UNL10       0.0241
     80 H          -2.3722    3.5191    7.8041 H      10  UNL10       0.0241
     81 CL         -0.7870    4.8344   14.4948 Cl     11  UNL11      -0.1257
     82 C          -1.2048    4.2863   12.8572 C.3    11  UNL11       0.0198
     83 C          -2.5225    4.8879   12.4162 C.3    11  UNL11      -0.0517
     84 H          -0.3965    4.5863   12.1843 H      11  UNL11       0.0427
     85 H          -1.2618    3.1943   12.8710 H      11  UNL11       0.0427
     86 H          -2.7741    4.5464   11.4070 H      11  UNL11       0.0241
     87 H          -3.3373    4.5913   13.0849 H      11  UNL11       0.0241
     88 H          -2.4731    5.9816   12.3991 H      11  UNL11       0.0241
     89 CL          0.3165    3.1708   17.1221 Cl     12  UNL12      -0.1257
     90 C          -1.2260    2.2891   17.1221 C.3    12  UNL12       0.0198
     91 C          -2.3905    3.2569   17.1221 C.3    12  UNL12      -0.0517
     92 H          -1.2506    1.6520   16.2335 H      12  UNL12       0.0427
     93 H          -1.2506    1.6520   18.0106 H      12  UNL12       0.0427
     94 H          -3.3374    2.7076   17.1221 H      12  UNL12       0.0241
     95 H          -2.3732    3.8981   18.0095 H      12  UNL12       0.0241
     96 H          -2.3732    3.8981   16.2347 H      12  UNL12       0.0241
     97 CL          0.4025    6.5543   -1.1000 Cl     13  UNL13      -0.1257
     98 C          -1.1400    5.6726   -1.1000 C.3    13  UNL13       0.0198
     99 C          -2.3045    6.6404   -1.1000 C.3    13  UNL13      -0.0517
    100 H          -1.1646    5.0355   -1.9886 H      13  UNL13       0.0427
    101 H          -1.1646    5.0355   -0.2115 H      13  UNL13       0.0427
    102 H          -3.2514    6.0911   -1.1000 H      13  UNL13       0.0241
    103 H          -2.2872    7.2816   -0.2126 H      13  UNL13       0.0241
    104 H          -2.2872    7.2816   -1.9874 H      13  UNL13       0.0241
    105 CL          0.3165    7.4874    2.3358 Cl     14  UNL14      -0.1257
    106 C          -1.2260    6.6057    2.3358 C.3    14  UNL14       0.0198
    107 C          -2.3905    7.5735    2.3358 C.3    14  UNL14      -0.0517
    108 H          -1.2506    5.9686    1.4472 H      14  UNL14       0.0427
    109 H          -1.2506    5.9686    3.2243 H      14  UNL14       0.0427
    110 H          -3.3374    7.0242    2.3358 H      14  UNL14       0.0241
    111 H          -2.3732    8.2147    3.2232 H      14  UNL14       0.0241
    112 H          -2.3732    8.2147    1.4484 H      14  UNL14       0.0241
    113 CL          0.8550   10.0834    7.4461 Cl     15  UNL15      -0.1257
    114 C          -0.1038    9.2017    6.2378 C.3    15  UNL15       0.0198
    115 C          -0.8277   10.1695    5.3257 C.3    15  UNL15      -0.0517
    116 H           0.5769    8.5646    5.6662 H      15  UNL15       0.0427
    117 H          -0.8151    8.5646    6.7709 H      15  UNL15       0.0427
    118 H          -1.4163    9.6202    4.5839 H      15  UNL15       0.0241
    119 H          -1.5121   10.8107    5.8908 H      15  UNL15       0.0241
    120 H          -0.1218   10.8107    4.7876 H      15  UNL15       0.0241
    121 CL          0.3175    6.4124    9.1985 Cl     16  UNL16      -0.1257
    122 C          -1.2250    5.5307    9.1985 C.3    16  UNL16       0.0198
    123 C          -2.3895    6.4985    9.1985 C.3    16  UNL16      -0.0517
    124 H          -1.2496    4.8936    8.3099 H      16  UNL16       0.0427
    125 H          -1.2496    4.8936   10.0870 H      16  UNL16       0.0427
    126 H          -3.3364    5.9492    9.1985 H      16  UNL16       0.0241
    127 H          -2.3722    7.1397   10.0859 H      16  UNL16       0.0241
    128 H          -2.3722    7.1397    8.3111 H      16  UNL16       0.0241
    129 CL         -1.0635    8.4306   14.4608 Cl     17  UNL17      -0.1257
    130 C           0.1388    8.5348   13.1569 C.3    17  UNL17       0.0198
    131 C          -0.2851    7.6884   11.9752 C.3    17  UNL17      -0.0517
    132 H           0.2333    9.5854   12.8680 H      17  UNL17       0.0427
    133 H           1.0986    8.1934   13.5547 H      17  UNL17       0.0427
    134 H           0.4596    7.7569   11.1757 H      17  UNL17       0.0241
    135 H          -0.3812    6.6345   12.2564 H      17  UNL17       0.0241
    136 H          -1.2454    8.0248   11.5706 H      17  UNL17       0.0241
    137 CL          0.3165    8.5224   17.1221 Cl     18  UNL18      -0.1257
    138 C          -1.2260    7.6407   17.1221 C.3    18  UNL18       0.0198
    139 C          -2.3905    8.6085   17.1221 C.3    18  UNL18      -0.0517
    140 H          -1.2506    7.0036   16.2335 H      18  UNL18       0.0427
    141 H          -1.2506    7.0036   18.0106 H      18  UNL18       0.0427
    142 H          -3.3374    8.0592   17.1221 H      18  UNL18       0.0241
    143 H          -2.3732    9.2497   18.0095 H      18  UNL18       0.0241
    144 H          -2.3732    9.2497   16.2347 H      18  UNL18       0.0241
    145 CL          0.3165   10.5440   -1.1000 Cl     19  UNL19      -0.1257
    146 C          -1.2260    9.6623   -1.1000 C.3    19  UNL19       0.0198
    147 C          -2.3905   10.6301   -1.1000 C.3    19  UNL19      -0.0517
    148 H          -1.2506    9.0252   -1.9886 H      19  UNL19       0.0427
    149 H          -1.2506    9.0252   -0.2115 H      19  UNL19       0.0427
    150 H          -3.3374   10.0808   -1.1000 H      19  UNL19       0.0241
    151 H          -2.3732   11.2713   -0.2126 H      19  UNL19       0.0241
    152 H          -2.3732   11.2713   -1.9874 H      19  UNL19       0.0241
    153 CL          0.3405   11.9218    2.8741 Cl     20  UNL20      -0.1257
    154 C          -1.2020   11.3737    2.1834 C.3    20  UNL20       0.0198
    155 C          -2.3665   11.9753    2.9415 C.3    20  UNL20      -0.0517
    156 H          -1.2266   11.6737    1.1320 H      20  UNL20       0.0427
    157 H          -1.2266   10.2817    2.2367 H      20  UNL20       0.0427
    158 H          -3.3134   11.6338    2.5112 H      20  UNL20       0.0241
    159 H          -2.3492   11.6787    3.9954 H      20  UNL20       0.0241
    160 H          -2.3492   13.0690    2.8922 H      20  UNL20       0.0241
    161 CL         -3.3371   12.1772    6.5586 Cl     21  UNL21      -0.1257
    162 C          -2.3192   13.6275    6.6899 C.3    21  UNL21       0.0198
    163 C          -1.2446   13.6200    5.6233 C.3    21  UNL21      -0.0517
    164 H          -2.9650   14.5038    6.5843 H      21  UNL21       0.0427
    165 H          -1.8746   13.6385    7.6890 H      21  UNL21       0.0427
    166 H          -0.6212   14.5158    5.7096 H      21  UNL21       0.0241
    167 H          -0.5931   12.7456    5.7228 H      21  UNL21       0.0241
    168 H          -1.6821   13.6098    4.6196 H      21  UNL21       0.0241
    169 CL          0.3175   10.0404   10.2537 Cl     22  UNL22      -0.1257
    170 C          -1.2250    9.4924    9.5630 C.3    22  UNL22       0.0198
    171 C          -2.3895   10.0940   10.3211 C.3    22  UNL22      -0.0517
    172 H          -1.2496    9.7924    8.5116 H      22  UNL22       0.0427
    173 H          -1.2496    8.4004    9.6163 H      22  UNL22       0.0427
    174 H          -3.3364    9.7525    9.8909 H      22  UNL22       0.0241
    175 H          -2.3722    9.7974   11.3750 H      22  UNL22       0.0241
    176 H          -2.3722   11.1877   10.2718 H      22  UNL22       0.0241
    177 CL          0.3175   12.5289   13.6533 Cl     23  UNL23      -0.1257
    178 C          -1.2250   11.6472   13.6533 C.3    23  UNL23       0.0198
    179 C          -2.3895   12.6150   13.6533 C.3    23  UNL23      -0.0517
    180 H          -1.2496   11.0101   12.7647 H      23  UNL23       0.0427
    181 H          -1.2496   11.0101   14.5418 H      23  UNL23       0.0427
    182 H          -3.3364   12.0657   13.6533 H      23  UNL23       0.0241
    183 H          -2.3722   13.2562   14.5407 H      23  UNL23       0.0241
    184 H          -2.3722   13.2562   12.7659 H      23  UNL23       0.0241
    185 CL          2.8705   12.5289   17.1221 Cl     24  UNL24      -0.1257
    186 C           1.3280   11.6472   17.1221 C.3    24  UNL24       0.0198
    187 C           0.1635   12.6150   17.1221 C.3    24  UNL24      -0.0517
    188 H           1.3034   11.0101   16.2335 H      24  UNL24       0.0427
    189 H           1.3034   11.0101   18.0106 H      24  UNL24       0.0427
    190 H          -0.7834   12.0657   17.1221 H      24  UNL24       0.0241
    191 H           0.1808   13.2562   18.0095 H      24  UNL24       0.0241
    192 H           0.1808   13.2562   16.2347 H      24  UNL24       0.0241
    193 CL         -3.3107   17.6457   -1.1000 Cl     25  UNL25      -0.1257
    194 C          -1.8313   16.6618   -1.1000 C.3    25  UNL25       0.0198
    195 C          -2.1747   15.1871   -1.1000 C.3    25  UNL25      -0.0517
    196 H          -1.2507   16.9253   -1.9886 H      25  UNL25       0.0427
    197 H          -1.2507   16.9253   -0.2115 H      25  UNL25       0.0427
    198 H          -1.2594   14.5867   -1.1000 H      25  UNL25       0.0241
    199 H          -2.7557   14.9153   -0.2126 H      25  UNL25       0.0241
    200 H          -2.7557   14.9153   -1.9874 H      25  UNL25       0.0241
    201 CL          0.3175   16.9190    2.1878 Cl     26  UNL26      -0.1257
    202 C          -1.2250   16.0374    2.1878 C.3    26  UNL26       0.0198
    203 C          -2.3895   17.0051    2.1878 C.3    26  UNL26      -0.0517
    204 H          -1.2496   15.4003    1.2992 H      26  UNL26       0.0427
    205 H          -1.2496   15.4003    3.0763 H      26  UNL26       0.0427
    206 H          -3.3364   16.4558    2.1878 H      26  UNL26       0.0241
    207 H          -2.3722   17.6462    3.0752 H      26  UNL26       0.0241
    208 H          -2.3722   17.6462    1.3004 H      26  UNL26       0.0241
    209 CL          0.7005   16.9185    8.5117 Cl     27  UNL27      -0.1257
    210 C          -0.8420   16.0368    8.5117 C.3    27  UNL27       0.0198
    211 C          -2.0065   17.0046    8.5117 C.3    27  UNL27      -0.0517
    212 H          -0.8666   15.3997    7.6231 H      27  UNL27       0.0427
    213 H          -0.8666   15.3997    9.4002 H      27  UNL27       0.0427
    214 H          -2.9534   16.4553    8.5117 H      27  UNL27       0.0241
    215 H          -1.9892   17.6458    9.3991 H      27  UNL27       0.0241
    216 H          -1.9892   17.6458    7.6243 H      27  UNL27       0.0241
    217 CL          0.3175   13.8435   10.1145 Cl     28  UNL28      -0.1257
    218 C          -1.2250   12.9618   10.1145 C.3    28  UNL28       0.0198
    219 C          -2.3895   13.9296   10.1145 C.3    28  UNL28      -0.0517
    220 H          -1.2496   12.3247    9.2259 H      28  UNL28       0.0427
    221 H          -1.2496   12.3247   11.0030 H      28  UNL28       0.0427
    222 H          -3.3364   13.3803   10.1145 H      28  UNL28       0.0241
    223 H          -2.3722   14.5708   11.0019 H      28  UNL28       0.0241
    224 H          -2.3722   14.5708    9.2271 H      28  UNL28       0.0241
    225 CL         -3.0582   17.6459   12.6097 Cl     29  UNL29      -0.1257
    226 C          -2.8414   16.0392   13.3364 C.3    29  UNL29       0.0198
    227 C          -1.3691   15.7169   13.4822 C.3    29  UNL29      -0.0517
    228 H          -3.3371   16.0401   14.3113 H      29  UNL29       0.0427
    229 H          -3.3371   15.3077   12.6921 H      29  UNL29       0.0427
    230 H          -1.2425   14.7262   13.9303 H      29  UNL29       0.0241
    231 H          -0.8658   15.7134   12.5098 H      29  UNL29       0.0241
    232 H          -0.8658   16.4449   14.1269 H      29  UNL29       0.0241
    233 CL         -3.3367   17.6457   17.1221 Cl     30  UNL30      -0.1257
    234 C          -1.8573   16.6618   17.1221 C.3    30  UNL30       0.0198
    235 C          -2.2007   15.1871   17.1221 C.3    30  UNL30      -0.0517
    236 H          -1.2767   16.9253   16.2335 H      30  UNL30       0.0427
    237 H          -1.2767   16.9253   18.0106 H      30  UNL30       0.0427
    238 H          -1.2854   14.5867   17.1221 H      30  UNL30       0.0241
    239 H          -2.7817   14.9153   18.0095 H      30  UNL30       0.0241
    240 H          -2.7817   14.9153   16.2347 H      30  UNL30       0.0241
    241 CL          5.4934    0.8452   -0.0080 Cl     31  UNL31      -0.1257
    242 C           3.9509   -0.0365   -0.0080 C.3    31  UNL31       0.0198
    243 C           2.7864    0.9313   -0.0080 C.3    31  UNL31      -0.0517
    244 H           3.9263   -0.6736   -0.8966 H      31  UNL31       0.0427
    245 H           3.9263   -0.6736    0.8805 H      31  UNL31       0.0427
    246 H           1.8395    0.3820   -0.0080 H      31  UNL31       0.0241
    247 H           2.8037    1.5725    0.8794 H      31  UNL31       0.0241
    248 H           2.8037    1.5725   -0.8954 H      31  UNL31       0.0241
    249 CL          2.9010    0.4024    4.9188 Cl     32  UNL32      -0.1257
    250 C           2.7168    1.1424    3.3141 C.3    32  UNL32       0.0198
    251 C           3.0698    2.6140    3.3647 C.3    32  UNL32      -0.0517
    252 H           3.3723    0.6096    2.6195 H      32  UNL32       0.0427
    253 H           1.6803    1.0025    2.9948 H      32  UNL32       0.0427
    254 H           2.9543    3.0638    2.3734 H      32  UNL32       0.0241
    255 H           2.4171    3.1547    4.0579 H      32  UNL32       0.0241
    256 H           4.1069    2.7624    3.6830 H      32  UNL32       0.0241
    257 CL          8.2614   -0.8348    6.0117 Cl     33  UNL33      -0.1257
    258 C           6.7189   -1.7165    6.0117 C.3    33  UNL33       0.0198
    259 C           5.5544   -0.7487    6.0117 C.3    33  UNL33      -0.0517
    260 H           6.6943   -2.3536    5.1231 H      33  UNL33       0.0427
    261 H           6.6943   -2.3536    6.9002 H      33  UNL33       0.0427
    262 H           4.6075   -1.2980    6.0117 H      33  UNL33       0.0241
    263 H           5.5717   -0.1075    6.8991 H      33  UNL33       0.0241
    264 H           5.5717   -0.1075    5.1243 H      33  UNL33       0.0241
    265 CL          2.4929    0.9066    8.6020 Cl     34  UNL34      -0.1257
    266 C           3.8887   -0.1027    9.0376 C.3    34  UNL34       0.0198
    267 C           3.6370   -1.5475    8.6612 C.3    34  UNL34      -0.0517
    268 H           4.7649    0.2884    8.5127 H      34  UNL34       0.0427
    269 H           4.0530   -0.0049   10.1143 H      34  UNL34       0.0427
    270 H           4.5003   -2.1637    8.9321 H      34  UNL34       0.0241
    271 H           2.7613   -1.9466    9.1835 H      34  UNL34       0.0241
    272 H           3.4723   -1.6537    7.5839 H      34  UNL34       0.0241
    273 CL          4.9811   -0.1812   12.1644 Cl     35  UNL35      -0.1257
    274 C           4.0569   -1.6986   12.1644 C.3    35  UNL35       0.0198
    275 C           2.5697   -1.4142   12.1644 C.3    35  UNL35      -0.0517
    276 H           4.3433   -2.2682   11.2758 H      35  UNL35       0.0427
    277 H           4.3433   -2.2682   13.0529 H      35  UNL35       0.0427
    278 H           2.0062   -2.3527   12.1644 H      35  UNL35       0.0241
    279 H           2.2749   -0.8445   13.0518 H      35  UNL35       0.0241
    280 H           2.2749   -0.8445   11.2770 H      35  UNL35       0.0241
    281 CL          2.8571   -1.4049   15.6417 Cl     36  UNL36      -0.1257
    282 C           4.5936   -1.5011   16.0051 C.3    36  UNL36       0.0198
    283 C           5.2912   -0.2178   15.6063 C.3    36  UNL36      -0.0517
    284 H           4.7043   -1.6862   17.0773 H      36  UNL36       0.0427
    285 H           5.0062   -2.3535   15.4581 H      36  UNL36       0.0427
    286 H           6.3602   -0.2835   15.8326 H      36  UNL36       0.0241
    287 H           5.1854   -0.0258   14.5335 H      36  UNL36       0.0241
    288 H           4.8840    0.6406   16.1505 H      36  UNL36       0.0241
    289 CL          5.9404    4.3468   -1.1000 Cl     37  UNL37      -0.1257
    290 C           4.3979    3.4651   -1.1000 C.3    37  UNL37       0.0198
    291 C           3.2334    4.4329   -1.1000 C.3    37  UNL37      -0.0517
    292 H           4.3733    2.8280   -1.9886 H      37  UNL37       0.0427
    293 H           4.3733    2.8280   -0.2115 H      37  UNL37       0.0427
    294 H           2.2865    3.8836   -1.1000 H      37  UNL37       0.0241
    295 H           3.2507    5.0741   -0.2126 H      37  UNL37       0.0241
    296 H           3.2507    5.0741   -1.9874 H      37  UNL37       0.0241
    297 CL          6.3794    5.2833    2.6021 Cl     38  UNL38      -0.1257
    298 C           4.8369    4.7353    1.9114 C.3    38  UNL38       0.0198
    299 C           3.6724    5.3369    2.6695 C.3    38  UNL38      -0.0517
    300 H           4.8123    5.0353    0.8600 H      38  UNL38       0.0427
    301 H           4.8123    3.6433    1.9647 H      38  UNL38       0.0427
    302 H           2.7255    4.9954    2.2392 H      38  UNL38       0.0241
    303 H           3.6897    5.0403    3.7234 H      38  UNL38       0.0241
    304 H           3.6897    6.4306    2.6202 H      38  UNL38       0.0241
    305 CL          5.2604    4.0647    6.4166 Cl     39  UNL39      -0.1257
    306 C           3.7179    3.1831    6.4315 C.3    39  UNL39       0.0198
    307 C           2.5534    4.1508    6.4152 C.3    39  UNL39      -0.0517
    308 H           3.6933    2.5312    5.5537 H      39  UNL39       0.0427
    309 H           3.6933    2.5611    7.3305 H      39  UNL39       0.0427
    310 H           1.6065    3.6016    6.4244 H      39  UNL39       0.0241
    311 H           2.5707    4.8068    7.2917 H      39  UNL39       0.0241
    312 H           2.5707    4.7770    5.5171 H      39  UNL39       0.0241
    313 CL          6.1694    5.2698    9.5497 Cl     40  UNL40      -0.1257
    314 C           4.6269    4.3881    9.5497 C.3    40  UNL40       0.0198
    315 C           3.4624    5.3559    9.5497 C.3    40  UNL40      -0.0517
    316 H           4.6023    3.7510    8.6611 H      40  UNL40       0.0427
    317 H           4.6023    3.7510   10.4382 H      40  UNL40       0.0427
    318 H           2.5155    4.8066    9.5497 H      40  UNL40       0.0241
    319 H           3.4797    5.9971   10.4371 H      40  UNL40       0.0241
    320 H           3.4797    5.9971    8.6623 H      40  UNL40       0.0241
    321 CL          0.5169    1.2002   12.0923 Cl     41  UNL41      -0.1257
    322 C           1.5590    2.6392   12.0923 C.3    41  UNL41       0.0198
    323 C           3.0189    2.2373   12.0923 C.3    41  UNL41      -0.0517
    324 H           1.3189    3.2298   11.2037 H      41  UNL41       0.0427
    325 H           1.3189    3.2298   12.9808 H      41  UNL41       0.0427
    326 H           3.6552    3.1281   12.0923 H      41  UNL41       0.0241
    327 H           3.2673    1.6460   12.9797 H      41  UNL41       0.0241
    328 H           3.2673    1.6460   11.2049 H      41  UNL41       0.0241
    329 CL          2.8898    1.5569   15.5221 Cl     42  UNL42      -0.1257
    330 C           3.1065    3.3203   15.5221 C.3    42  UNL42       0.0198
    331 C           4.5788    3.6741   15.5221 C.3    42  UNL42      -0.0517
    332 H           2.6108    3.7213   14.6335 H      42  UNL42       0.0427
    333 H           2.6108    3.7213   16.4106 H      42  UNL42       0.0427
    334 H           4.7054    4.7614   15.5221 H      42  UNL42       0.0241
    335 H           5.0821    3.2765   16.4095 H      42  UNL42       0.0241
    336 H           5.0821    3.2765   14.6347 H      42  UNL42       0.0241
    337 CL          4.6504    8.3024   -1.9881 Cl     43  UNL43      -0.1257
    338 C           3.6318    7.4207   -0.8297 C.3    43  UNL43       0.0198
    339 C           2.8629    8.3885    0.0448 C.3    43  UNL43      -0.0517
    340 H           2.9482    6.7836   -1.3980 H      43  UNL43       0.0427
    341 H           4.2828    6.7836   -0.2246 H      43  UNL43       0.0427
    342 H           2.2376    7.8392    0.7559 H      43  UNL43       0.0241
    343 H           3.5407    9.0297    0.6178 H      43  UNL43       0.0241
    344 H           2.2079    9.0297   -0.5542 H      43  UNL43       0.0241
    345 CL          6.1064    9.4603    2.7608 Cl     44  UNL44      -0.1257
    346 C           4.5639    8.5786    2.7608 C.3    44  UNL44       0.0198
    347 C           3.3994    9.5464    2.7608 C.3    44  UNL44      -0.0517
    348 H           4.5393    7.9415    1.8722 H      44  UNL44       0.0427
    349 H           4.5393    7.9415    3.6493 H      44  UNL44       0.0427
    350 H           2.4525    8.9971    2.7608 H      44  UNL44       0.0241
    351 H           3.4167   10.1876    3.6482 H      44  UNL44       0.0241
    352 H           3.4167   10.1876    1.8734 H      44  UNL44       0.0241
    353 CL          5.6684    7.7424    5.9007 Cl     45  UNL45      -0.1257
    354 C           4.1259    6.8607    5.9007 C.3    45  UNL45       0.0198
    355 C           2.9614    7.8285    5.9007 C.3    45  UNL45      -0.0517
    356 H           4.1013    6.2236    5.0121 H      45  UNL45       0.0427
    357 H           4.1013    6.2236    6.7892 H      45  UNL45       0.0427
    358 H           2.0145    7.2792    5.9007 H      45  UNL45       0.0241
    359 H           2.9787    8.4697    6.7881 H      45  UNL45       0.0241
    360 H           2.9787    8.4697    5.0133 H      45  UNL45       0.0241
    361 CL          2.6939    8.1468    9.0135 Cl     46  UNL46      -0.1257
    362 C           3.7360    9.5858    9.0135 C.3    46  UNL46       0.0198
    363 C           5.1959    9.1839    9.0135 C.3    46  UNL46      -0.0517
    364 H           3.4959   10.1764    8.1249 H      46  UNL46       0.0427
    365 H           3.4959   10.1764    9.9020 H      46  UNL46       0.0427
    366 H           5.8322   10.0746    9.0135 H      46  UNL46       0.0241
    367 H           5.4443    8.5926    9.9009 H      46  UNL46       0.0241
    368 H           5.4443    8.5926    8.1261 H      46  UNL46       0.0241
    369 CL          5.5664    6.6824   12.9003 Cl     47  UNL47      -0.1257
    370 C           4.0239    5.8007   12.9003 C.3    47  UNL47       0.0198
    371 C           2.8594    6.7685   12.9003 C.3    47  UNL47      -0.0517
    372 H           3.9993    5.1636   12.0117 H      47  UNL47       0.0427
    373 H           3.9993    5.1636   13.7888 H      47  UNL47       0.0427
    374 H           1.9125    6.2192   12.9003 H      47  UNL47       0.0241
    375 H           2.8767    7.4097   13.7877 H      47  UNL47       0.0241
    376 H           2.8767    7.4097   12.0129 H      47  UNL47       0.0241
    377 CL          1.9919    6.1158   17.1222 Cl     48  UNL48      -0.1257
    378 C           3.0340    7.5548   17.1222 C.3    48  UNL48       0.0198
    379 C           4.4939    7.1529   17.1222 C.3    48  UNL48      -0.0517
    380 H           2.7939    8.1454   16.2336 H      48  UNL48       0.0427
    381 H           2.7939    8.1454   18.0107 H      48  UNL48       0.0427
    382 H           5.1302    8.0436   17.1222 H      48  UNL48       0.0241
    383 H           4.7423    6.5616   18.0096 H      48  UNL48       0.0241
    384 H           4.7423    6.5616   16.2348 H      48  UNL48       0.0241
    385 CL          3.9374   13.1659   -1.9881 Cl     49  UNL49      -0.1257
    386 C           2.9188   12.2842   -0.8297 C.3    49  UNL49       0.0198
    387 C           2.1499   13.2520    0.0448 C.3    49  UNL49      -0.0517
    388 H           2.2353   11.6471   -1.3980 H      49  UNL49       0.0427
    389 H           3.5698   11.6471   -0.2246 H      49  UNL49       0.0427
    390 H           1.5246   12.7027    0.7559 H      49  UNL49       0.0241
    391 H           2.8277   13.8932    0.6178 H      49  UNL49       0.0241
    392 H           1.4949   13.8932   -0.5542 H      49  UNL49       0.0241
    393 CL          6.7584   12.9669    2.7638 Cl     50  UNL50      -0.1257
    394 C           5.2159   12.0852    2.7638 C.3    50  UNL50       0.0198
    395 C           4.0514   13.0530    2.7638 C.3    50  UNL50      -0.0517
    396 H           5.1913   11.4481    1.8752 H      50  UNL50       0.0427
    397 H           5.1913   11.4481    3.6523 H      50  UNL50       0.0427
    398 H           3.1045   12.5037    2.7638 H      50  UNL50       0.0241
    399 H           4.0687   13.6942    3.6512 H      50  UNL50       0.0241
    400 H           4.0687   13.6942    1.8764 H      50  UNL50       0.0241
    401 CL          6.3114   11.2490    5.8567 Cl     51  UNL51      -0.1257
    402 C           4.7689   10.3673    5.8567 C.3    51  UNL51       0.0198
    403 C           3.6044   11.3351    5.8567 C.3    51  UNL51      -0.0517
    404 H           4.7443    9.7302    4.9681 H      51  UNL51       0.0427
    405 H           4.7443    9.7302    6.7452 H      51  UNL51       0.0427
    406 H           2.6575   10.7858    5.8567 H      51  UNL51       0.0241
    407 H           3.6217   11.9763    6.7441 H      51  UNL51       0.0241
    408 H           3.6217   11.9763    4.9693 H      51  UNL51       0.0241
    409 CL          6.2394   13.2070    9.7245 Cl     52  UNL52      -0.1257
    410 C           4.6969   12.3253    9.7245 C.3    52  UNL52       0.0198
    411 C           3.5324   13.2931    9.7245 C.3    52  UNL52      -0.0517
    412 H           4.6723   11.6882    8.8359 H      52  UNL52       0.0427
    413 H           4.6723   11.6882   10.6130 H      52  UNL52       0.0427
    414 H           2.5855   12.7438    9.7245 H      52  UNL52       0.0241
    415 H           3.5497   13.9343   10.6119 H      52  UNL52       0.0241
    416 H           3.5497   13.9343    8.8371 H      52  UNL52       0.0241
    417 CL          5.6454   10.5860   12.3033 Cl     53  UNL53      -0.1257
    418 C           4.1029    9.7043   12.3033 C.3    53  UNL53       0.0198
    419 C           2.9384   10.6721   12.3033 C.3    53  UNL53      -0.0517
    420 H           4.0783    9.0672   11.4147 H      53  UNL53       0.0427
    421 H           4.0783    9.0672   13.1918 H      53  UNL53       0.0427
    422 H           1.9915   10.1228   12.3033 H      53  UNL53       0.0241
    423 H           2.9557   11.3133   13.1907 H      53  UNL53       0.0241
    424 H           2.9557   11.3133   11.4159 H      53  UNL53       0.0241
    425 CL          4.1322   11.1509   15.2523 Cl     54  UNL54      -0.1257
    426 C           5.9036   11.2888   15.2523 C.3    54  UNL54       0.0198
    427 C           6.5427    9.9161   15.2523 C.3    54  UNL54      -0.0517
    428 H           6.1981   11.8542   14.3637 H      54  UNL54       0.0427
    429 H           6.1981   11.8542   16.1408 H      54  UNL54       0.0427
    430 H           7.6336   10.0080   15.2523 H      54  UNL54       0.0241
    431 H           6.2531    9.3438   16.1397 H      54  UNL54       0.0241
    432 H           6.2531    9.3438   14.3649 H      54  UNL54       0.0241
    433 CL          3.6551   17.6461   -1.1000 Cl     55  UNL55      -0.1257
    434 C           2.7309   16.1287   -1.1000 C.3    55  UNL55       0.0198
    435 C           1.2437   16.4131   -1.1000 C.3    55  UNL55      -0.0517
    436 H           3.0173   15.5591   -1.9886 H      55  UNL55       0.0427
    437 H           3.0173   15.5591   -0.2115 H      55  UNL55       0.0427
    438 H           0.6802   15.4746   -1.1000 H      55  UNL55       0.0241
    439 H           0.9489   16.9828   -0.2126 H      55  UNL55       0.0241
    440 H           0.9489   16.9828   -1.9874 H      55  UNL55       0.0241
    441 CL          5.3449   16.9185    1.0024 Cl     56  UNL56      -0.1257
    442 C           4.3861   16.0368    2.2106 C.3    56  UNL56       0.0198
    443 C           3.6622   17.0046    3.1228 C.3    56  UNL56      -0.0517
    444 H           3.6747   15.3997    1.6775 H      56  UNL56       0.0427
    445 H           5.0668   15.3997    2.7822 H      56  UNL56       0.0427
    446 H           3.0736   16.4553    3.8646 H      56  UNL56       0.0241
    447 H           4.3681   17.6458    3.6609 H      56  UNL56       0.0241
    448 H           2.9779   17.6458    2.5577 H      56  UNL56       0.0241
    449 CL          4.8044   15.4297    6.1637 Cl     57  UNL57      -0.1257
    450 C           3.2619   14.5480    6.1637 C.3    57  UNL57       0.0198
    451 C           2.0974   15.5158    6.1637 C.3    57  UNL57      -0.0517
    452 H           3.2373   13.9109    5.2751 H      57  UNL57       0.0427
    453 H           3.2373   13.9109    7.0522 H      57  UNL57       0.0427
    454 H           1.1505   14.9665    6.1637 H      57  UNL57       0.0241
    455 H           2.1147   16.1569    7.0511 H      57  UNL57       0.0241
    456 H           2.1147   16.1569    5.2763 H      57  UNL57       0.0241
    457 CL          6.1419   16.9185   11.1612 Cl     58  UNL58      -0.1257
    458 C           5.1830   16.0368    9.9530 C.3    58  UNL58       0.0198
    459 C           4.4592   17.0046    9.0408 C.3    58  UNL58      -0.0517
    460 H           5.8638   15.3997    9.3813 H      58  UNL58       0.0427
    461 H           4.4718   15.3997   10.4860 H      58  UNL58       0.0427
    462 H           3.8706   16.4553    8.2990 H      58  UNL58       0.0241
    463 H           3.7748   17.6458    9.6059 H      58  UNL58       0.0241
    464 H           5.1650   17.6458    8.5027 H      58  UNL58       0.0241
    465 CL          1.2296   17.6458   12.5656 Cl     59  UNL59      -0.1257
    466 C           2.8591   16.9376   12.5656 C.3    59  UNL59       0.0198
    467 C           2.7807   15.4255   12.5656 C.3    59  UNL59      -0.0517
    468 H           3.3842   17.2992   11.6770 H      59  UNL59       0.0427
    469 H           3.3842   17.2992   13.4541 H      59  UNL59       0.0427
    470 H           3.7874   14.9956   12.5656 H      59  UNL59       0.0241
    471 H           2.2566   15.0556   13.4530 H      59  UNL59       0.0241
    472 H           2.2566   15.0556   11.6782 H      59  UNL59       0.0241
    473 CL          3.9818   14.8318   15.5008 Cl     60  UNL60      -0.1257
    474 C           3.2579   15.6830   16.8821 C.3    60  UNL60       0.0198
    475 C           4.0008   16.9729   17.1592 C.3    60  UNL60      -0.0517
    476 H           2.2093   15.8823   16.6438 H      60  UNL60       0.0427
    477 H           3.2997   15.0170   17.7485 H      60  UNL60       0.0427
    478 H           3.5501   17.4923   18.0110 H      60  UNL60       0.0241
    479 H           5.0518   16.7815   17.3994 H      60  UNL60       0.0241
    480 H           3.9628   17.6457   16.2961 H      60  UNL60       0.0241
    481 CL         10.4954   -0.8338   -1.1000 Cl     61  UNL61      -0.1257
    482 C           8.9529   -1.7155   -1.1000 C.3    61  UNL61       0.0198
    483 C           7.7884   -0.7477   -1.1000 C.3    61  UNL61      -0.0517
    484 H           8.9283   -2.3526   -1.9886 H      61  UNL61       0.0427
    485 H           8.9283   -2.3526   -0.2115 H      61  UNL61       0.0427
    486 H           6.8415   -1.2970   -1.1000 H      61  UNL61       0.0241
    487 H           7.8057   -0.1065   -0.2126 H      61  UNL61       0.0241
    488 H           7.8057   -0.1065   -1.9874 H      61  UNL61       0.0241
    489 CL          5.3941   -0.5820    2.6249 Cl     62  UNL62      -0.1257
    490 C           7.1629   -0.4143    2.6249 C.3    62  UNL62       0.0198
    491 C           7.8250   -1.7760    2.6249 C.3    62  UNL62      -0.0517
    492 H           7.4478    0.1560    1.7363 H      62  UNL62       0.0427
    493 H           7.4478    0.1560    3.5134 H      62  UNL62       0.0427
    494 H           8.9141   -1.6658    2.6249 H      62  UNL62       0.0241
    495 H           7.5450   -2.3531    3.5123 H      62  UNL62       0.0241
    496 H           7.5450   -2.3531    1.7375 H      62  UNL62       0.0241
    497 CL         10.6694    2.7572    6.6457 Cl     63  UNL63      -0.1257
    498 C           9.1269    1.8755    6.6457 C.3    63  UNL63       0.0198
    499 C           7.9624    2.8433    6.6457 C.3    63  UNL63      -0.0517
    500 H           9.1023    1.2384    5.7571 H      63  UNL63       0.0427
    501 H           9.1023    1.2384    7.5342 H      63  UNL63       0.0427
    502 H           7.0155    2.2940    6.6457 H      63  UNL63       0.0241
    503 H           7.9797    3.4845    7.5331 H      63  UNL63       0.0241
    504 H           7.9797    3.4845    5.7583 H      63  UNL63       0.0241
    505 CL          7.5246   -2.3534    9.4006 Cl     64  UNL64      -0.1257
    506 C           8.5666   -0.9144    9.4006 C.3    64  UNL64       0.0198
    507 C          10.0264   -1.3162    9.4006 C.3    64  UNL64      -0.0517
    508 H           8.3264   -0.3237    8.5120 H      64  UNL64       0.0427
    509 H           8.3264   -0.3237   10.2891 H      64  UNL64       0.0427
    510 H          10.6628   -0.4255    9.4006 H      64  UNL64       0.0241
    511 H          10.2749   -1.9076   10.2880 H      64  UNL64       0.0241
    512 H          10.2749   -1.9076    8.5132 H      64  UNL64       0.0241
    513 CL          7.0829   -2.3534   13.0403 Cl     65  UNL65      -0.1257
    514 C           8.1249   -0.9144   13.0403 C.3    65  UNL65       0.0198
    515 C           9.5848   -1.3162   13.0403 C.3    65  UNL65      -0.0517
    516 H           7.8848   -0.3237   12.1517 H      65  UNL65       0.0427
    517 H           7.8848   -0.3237   13.9288 H      65  UNL65       0.0427
    518 H          10.2211   -0.4255   13.0403 H      65  UNL65       0.0241
    519 H           9.8333   -1.9076   13.9277 H      65  UNL65       0.0241
    520 H           9.8333   -1.9076   12.1529 H      65  UNL65       0.0241
    521 CL         10.9450    0.3412   17.2062 Cl     66  UNL66      -0.1257
    522 C          10.3502   -1.2350   16.6420 C.3    66  UNL66       0.0198
    523 C           8.8720   -1.3808   16.9362 C.3    66  UNL66      -0.0517
    524 H          10.5406   -1.3026   15.5671 H      66  UNL66       0.0427
    525 H          10.9258   -2.0143   17.1493 H      66  UNL66       0.0427
    526 H           8.5120   -2.3536   16.5863 H      66  UNL66       0.0241
    527 H           8.6733   -1.3149   18.0110 H      66  UNL66       0.0241
    528 H           8.2886   -0.6042   16.4308 H      66  UNL66       0.0241
    529 CL          9.8129    2.6244   -1.9885 Cl     67  UNL67      -0.1257
    530 C           9.3951    2.0763   -0.3509 C.3    67  UNL67       0.0198
    531 C           8.0774    2.6779    0.0901 C.3    67  UNL67      -0.0517
    532 H           9.3380    0.9842   -0.3647 H      67  UNL67       0.0427
    533 H          10.2034    2.3763    0.3219 H      67  UNL67       0.0427
    534 H           7.8258    2.3364    1.0993 H      67  UNL67       0.0241
    535 H           8.1268    3.7716    0.1072 H      67  UNL67       0.0241
    536 H           7.2626    2.3813   -0.5786 H      67  UNL67       0.0241
    537 CL         11.4868    0.0009    2.0588 Cl     68  UNL68      -0.1257
    538 C          10.0046    0.6297    2.8103 C.3    68  UNL68       0.0198
    539 C          10.2906    1.9196    3.5499 C.3    68  UNL68      -0.0517
    540 H           9.2672    0.7911    2.0189 H      68  UNL68       0.0427
    541 H           9.6230   -0.1336    3.4942 H      68  UNL68       0.0427
    542 H           9.3739    2.3015    4.0104 H      68  UNL68       0.0241
    543 H          11.0279    1.7659    4.3447 H      68  UNL68       0.0241
    544 H          10.6726    2.6894    2.8714 H      68  UNL68       0.0241
    545 CL         10.8193    6.3458    5.5247 Cl     69  UNL69      -0.1257
    546 C           9.2768    5.4641    5.5247 C.3    69  UNL69       0.0198
    547 C           8.1123    6.4319    5.5247 C.3    69  UNL69      -0.0517
    548 H           9.2522    4.8270    4.6361 H      69  UNL69       0.0427
    549 H           9.2522    4.8270    6.4132 H      69  UNL69       0.0427
    550 H           7.1654    5.8826    5.5247 H      69  UNL69       0.0241
    551 H           8.1296    7.0731    6.4121 H      69  UNL69       0.0241
    552 H           8.1296    7.0731    4.6373 H      69  UNL69       0.0241
    553 CL          9.6168    2.1352   11.5410 Cl     70  UNL70      -0.1257
    554 C           8.7951    2.3110    9.9756 C.3    70  UNL70       0.0198
    555 C           7.3247    2.6104   10.1786 C.3    70  UNL70      -0.0517
    556 H           9.2840    3.1208    9.4267 H      70  UNL70       0.0427
    557 H           8.9283    1.3797    9.4180 H      70  UNL70       0.0427
    558 H           6.8245    2.7175    9.2108 H      70  UNL70       0.0241
    559 H           6.8278    1.8034   10.7271 H      70  UNL70       0.0241
    560 H           7.1831    3.5423   10.7358 H      70  UNL70       0.0241
    561 CL          7.3029    3.8801   13.0537 Cl     71  UNL71      -0.1257
    562 C           8.3449    5.3192   13.0537 C.3    71  UNL71       0.0198
    563 C           9.8048    4.9173   13.0537 C.3    71  UNL71      -0.0517
    564 H           8.1048    5.9098   12.1651 H      71  UNL71       0.0427
    565 H           8.1048    5.9098   13.9422 H      71  UNL71       0.0427
    566 H          10.4412    5.8080   13.0537 H      71  UNL71       0.0241
    567 H          10.0533    4.3260   13.9411 H      71  UNL71       0.0241
    568 H          10.0533    4.3260   12.1663 H      71  UNL71       0.0241
    569 CL          8.1426    3.9142   15.8225 Cl     72  UNL72      -0.1257
    570 C           7.7267    2.1886   15.9002 C.3    72  UNL72       0.0198
    571 C           7.3408    1.7988   17.3116 C.3    72  UNL72      -0.0517
    572 H           6.8992    2.0093   15.2079 H      72  UNL72       0.0427
    573 H           8.5956    1.6164   15.5632 H      72  UNL72       0.0427
    574 H           7.0858    0.7350   17.3526 H      72  UNL72       0.0241
    575 H           8.1647    1.9748   18.0109 H      72  UNL72       0.0241
    576 H           6.4706    2.3672   17.6560 H      72  UNL72       0.0241
    577 CL         10.6652    7.4082   -1.9879 Cl     73  UNL73      -0.1257
    578 C           9.0536    7.5758   -1.2590 C.3    73  UNL73       0.0198
    579 C           8.4503    6.2141   -0.9861 C.3    73  UNL73      -0.0517
    580 H           9.1602    8.1462   -0.3319 H      73  UNL73       0.0427
    581 H           8.4278    8.1462   -1.9511 H      73  UNL73       0.0427
    582 H           7.4579    6.3244   -0.5372 H      73  UNL73       0.0241
    583 H           8.3397    5.6370   -1.9100 H      73  UNL73       0.0241
    584 H           9.0711    5.6370   -0.2929 H      73  UNL73       0.0241
    585 CL          9.0362    4.3685    2.3912 Cl     74  UNL74      -0.1257
    586 C          10.7328    4.8962    2.3992 C.3    74  UNL74       0.0198
    587 C          11.4742    4.3170    1.2128 C.3    74  UNL74      -0.0517
    588 H          10.7464    5.9894    2.3695 H      74  UNL74       0.0427
    589 H          11.1847    4.5656    3.3385 H      74  UNL74       0.0427
    590 H          12.5184    4.6457    1.2235 H      74  UNL74       0.0241
    591 H          11.4656    3.2223    1.2357 H      74  UNL74       0.0241
    592 H          11.0279    4.6442    0.2680 H      74  UNL74       0.0241
    593 CL         11.3814    9.9284    4.4077 Cl     75  UNL75      -0.1257
    594 C           9.8389    9.0467    4.4077 C.3    75  UNL75       0.0198
    595 C           8.6744   10.0145    4.4077 C.3    75  UNL75      -0.0517
    596 H           9.8143    8.4096    3.5191 H      75  UNL75       0.0427
    597 H           9.8143    8.4096    5.2962 H      75  UNL75       0.0427
    598 H           7.7275    9.4652    4.4077 H      75  UNL75       0.0241
    599 H           8.6917   10.6557    5.2951 H      75  UNL75       0.0241
    600 H           8.6917   10.6557    3.5203 H      75  UNL75       0.0241
    601 CL          8.6135    8.8406    8.9725 Cl     76  UNL76      -0.1257
    602 C          10.2430    8.1324    8.9725 C.3    76  UNL76       0.0198
    603 C          10.1645    6.6203    8.9725 C.3    76  UNL76      -0.0517
    604 H          10.7681    8.4940    8.0839 H      76  UNL76       0.0427
    605 H          10.7681    8.4940    9.8610 H      76  UNL76       0.0427
    606 H          11.1713    6.1904    8.9725 H      76  UNL76       0.0241
    607 H           9.6405    6.2504    9.8599 H      76  UNL76       0.0241
    608 H           9.6405    6.2504    8.0851 H      76  UNL76       0.0241
    609 CL         11.2504    9.1363   12.4713 Cl     77  UNL77      -0.1257
    610 C           9.7079    8.2547   12.4713 C.3    77  UNL77       0.0198
    611 C           8.5434    9.2225   12.4713 C.3    77  UNL77      -0.0517
    612 H           9.6833    7.6175   11.5827 H      77  UNL77       0.0427
    613 H           9.6833    7.6175   13.3598 H      77  UNL77       0.0427
    614 H           7.5965    8.6731   12.4713 H      77  UNL77       0.0241
    615 H           8.5607    9.8636   13.3587 H      77  UNL77       0.0241
    616 H           8.5607    9.8636   11.5839 H      77  UNL77       0.0241
    617 CL         10.7004    7.6453   17.1221 Cl     78  UNL78      -0.1257
    618 C           9.1579    6.7636   17.1221 C.3    78  UNL78       0.0198
    619 C           7.9934    7.7314   17.1221 C.3    78  UNL78      -0.0517
    620 H           9.1333    6.1265   16.2335 H      78  UNL78       0.0427
    621 H           9.1333    6.1265   18.0106 H      78  UNL78       0.0427
    622 H           7.0465    7.1821   17.1221 H      78  UNL78       0.0241
    623 H           8.0107    8.3726   18.0095 H      78  UNL78       0.0241
    624 H           8.0107    8.3726   16.2347 H      78  UNL78       0.0241
    625 CL          8.6443   10.9190   -1.1000 Cl     79  UNL79      -0.1257
    626 C           7.1018   10.0373   -1.1000 C.3    79  UNL79       0.0198
    627 C           5.9373   11.0051   -1.1000 C.3    79  UNL79      -0.0517
    628 H           7.0772    9.4002   -1.9886 H      79  UNL79       0.0427
    629 H           7.0772    9.4002   -0.2115 H      79  UNL79       0.0427
    630 H           4.9904   10.4558   -1.1000 H      79  UNL79       0.0241
    631 H           5.9546   11.6463   -0.2126 H      79  UNL79       0.0241
    632 H           5.9546   11.6463   -1.9874 H      79  UNL79       0.0241
    633 CL         11.8279   13.4675    1.4111 Cl     80  UNL80      -0.1257
    634 C          11.2984   11.9185    0.7204 C.3    80  UNL80       0.0198
    635 C          10.1033   11.3803    1.4785 C.3    80  UNL80      -0.0517
    636 H          11.0481   12.0857   -0.3310 H      80  UNL80       0.0427
    637 H          12.1385   11.2204    0.7737 H      80  UNL80       0.0427
    638 H           9.7822   10.4263    1.0482 H      80  UNL80       0.0241
    639 H          10.3464   11.2095    2.5324 H      80  UNL80       0.0241
    640 H           9.2573   12.0737    1.4292 H      80  UNL80       0.0241
    641 CL         11.6494   12.7709    7.3987 Cl     81  UNL81      -0.1257
    642 C          10.1069   11.8892    7.3987 C.3    81  UNL81       0.0198
    643 C           8.9424   12.8570    7.3987 C.3    81  UNL81      -0.0517
    644 H          10.0823   11.2521    6.5101 H      81  UNL81       0.0427
    645 H          10.0823   11.2521    8.2872 H      81  UNL81       0.0427
    646 H           7.9955   12.3077    7.3987 H      81  UNL81       0.0241
    647 H           8.9597   13.4982    8.2861 H      81  UNL81       0.0241
    648 H           8.9597   13.4982    6.5113 H      81  UNL81       0.0241
    649 CL         11.7133   12.8650   11.1225 Cl     82  UNL82      -0.1257
    650 C          10.1708   11.9833   11.1225 C.3    82  UNL82       0.0198
    651 C           9.0063   12.9511   11.1225 C.3    82  UNL82      -0.0517
    652 H          10.1462   11.3462   10.2339 H      82  UNL82       0.0427
    653 H          10.1462   11.3462   12.0110 H      82  UNL82       0.0427
    654 H           8.0594   12.4018   11.1225 H      82  UNL82       0.0241
    655 H           9.0236   13.5923   12.0099 H      82  UNL82       0.0241
    656 H           9.0236   13.5923   10.2351 H      82  UNL82       0.0241
    657 CL         12.7615   13.3275   14.9586 Cl     83  UNL83      -0.1257
    658 C          11.2190   12.7794   14.2680 C.3    83  UNL83       0.0198
    659 C          10.0545   13.3810   15.0261 C.3    83  UNL83      -0.0517
    660 H          11.1944   13.0795   13.2165 H      83  UNL83       0.0427
    661 H          11.1944   11.6874   14.3212 H      83  UNL83       0.0427
    662 H           9.1076   13.0396   14.5958 H      83  UNL83       0.0241
    663 H          10.0718   13.0845   16.0799 H      83  UNL83       0.0241
    664 H          10.0718   14.4747   14.9767 H      83  UNL83       0.0241
    665 CL         11.1854   11.3924   17.1221 Cl     84  UNL84      -0.1257
    666 C           9.6429   10.5107   17.1221 C.3    84  UNL84       0.0198
    667 C           8.4784   11.4785   17.1221 C.3    84  UNL84      -0.0517
    668 H           9.6183    9.8736   16.2335 H      84  UNL84       0.0427
    669 H           9.6183    9.8736   18.0106 H      84  UNL84       0.0427
    670 H           7.5315   10.9292   17.1221 H      84  UNL84       0.0241
    671 H           8.4957   12.1197   18.0095 H      84  UNL84       0.0241
    672 H           8.4957   12.1197   16.2347 H      84  UNL84       0.0241
    673 CL          7.7488   13.4777   -1.1000 Cl     85  UNL85      -0.1257
    674 C           7.9656   15.2411   -1.1000 C.3    85  UNL85       0.0198
    675 C           9.4379   15.5949   -1.1000 C.3    85  UNL85      -0.0517
    676 H           7.4699   15.6421   -1.9886 H      85  UNL85       0.0427
    677 H           7.4699   15.6421   -0.2115 H      85  UNL85       0.0427
    678 H           9.5645   16.6822   -1.1000 H      85  UNL85       0.0241
    679 H           9.9412   15.1973   -0.2126 H      85  UNL85       0.0241
    680 H           9.9412   15.1973   -1.9874 H      85  UNL85       0.0241
    681 CL          9.1181   14.4416    1.8928 Cl     86  UNL86      -0.1257
    682 C           9.3349   16.2051    1.8928 C.3    86  UNL86       0.0198
    683 C          10.8071   16.5588    1.8928 C.3    86  UNL86      -0.0517
    684 H           8.8392   16.6061    1.0042 H      86  UNL86       0.0427
    685 H           8.8392   16.6061    2.7813 H      86  UNL86       0.0427
    686 H          10.9337   17.6462    1.8928 H      86  UNL86       0.0241
    687 H          11.3105   16.1612    2.7802 H      86  UNL86       0.0241
    688 H          11.3105   16.1612    1.0054 H      86  UNL86       0.0241
    689 CL         10.5491   15.0716    5.1286 Cl     87  UNL87      -0.1257
    690 C           8.8996   15.7318    5.1286 C.3    87  UNL87       0.0198
    691 C           8.9338   17.2456    5.1286 C.3    87  UNL87      -0.0517
    692 H           8.3852   15.3551    4.2400 H      87  UNL87       0.0427
    693 H           8.3852   15.3551    6.0171 H      87  UNL87       0.0427
    694 H           7.9149   17.6459    5.1286 H      87  UNL87       0.0241
    695 H           9.4468   17.6306    6.0160 H      87  UNL87       0.0241
    696 H           9.4468   17.6306    4.2412 H      87  UNL87       0.0241
    697 CL         10.9496   17.6463    8.4277 Cl     88  UNL88      -0.1257
    698 C          10.0144   16.1444    8.2649 C.3    88  UNL88       0.0198
    699 C           8.5470   16.4009    8.5363 C.3    88  UNL88      -0.0517
    700 H          10.1609   15.7639    7.2500 H      88  UNL88       0.0427
    701 H          10.4190   15.4164    8.9736 H      88  UNL88       0.0427
    702 H           7.9767   15.4721    8.4344 H      88  UNL88       0.0241
    703 H           8.3921   16.7816    9.5512 H      88  UNL88       0.0241
    704 H           8.1344   17.1286    7.8299 H      88  UNL88       0.0241
    705 CL         10.8452   16.4991   14.3168 Cl     89  UNL89      -0.1257
    706 C          10.4274   15.9510   12.6792 C.3    89  UNL89       0.0198
    707 C           9.1096   16.5526   12.2382 C.3    89  UNL89      -0.0517
    708 H          11.2357   16.2511   12.0063 H      89  UNL89       0.0427
    709 H          10.3704   14.8590   12.6930 H      89  UNL89       0.0427
    710 H           8.8581   16.2112   11.2290 H      89  UNL89       0.0241
    711 H           8.2948   16.2561   12.9069 H      89  UNL89       0.0241
    712 H           9.1591   17.6463   12.2211 H      89  UNL89       0.0241
    713 CL          7.7686   16.9005   18.0112 Cl     90  UNL90      -0.1257
    714 C           7.4368   16.0188   16.5048 C.3    90  UNL90       0.0198
    715 C           7.1864   16.9866   15.3676 C.3    90  UNL90      -0.0517
    716 H           8.2993   15.3817   16.2896 H      90  UNL90       0.0427
    717 H           6.5638   15.3817   16.6719 H      90  UNL90       0.0427
    718 H           6.9827   16.4373   14.4428 H      90  UNL90       0.0241
    719 H           6.3234   17.6278   15.5754 H      90  UNL90       0.0241
    720 H           8.0567   17.6278   15.1936 H      90  UNL90       0.0241
    721 CL         16.5723   -0.8348   -1.1000 Cl     91  UNL91      -0.1257
    722 C          15.0298   -1.7165   -1.1000 C.3    91  UNL91       0.0198
    723 C          13.8653   -0.7487   -1.1000 C.3    91  UNL91      -0.0517
    724 H          15.0052   -2.3536   -1.9886 H      91  UNL91       0.0427
    725 H          15.0052   -2.3536   -0.2115 H      91  UNL91       0.0427
    726 H          12.9184   -1.2980   -1.1000 H      91  UNL91       0.0241
    727 H          13.8826   -0.1075   -0.2126 H      91  UNL91       0.0241
    728 H          13.8826   -0.1075   -1.9874 H      91  UNL91       0.0241
    729 CL         16.6623   -0.8348    3.2388 Cl     92  UNL92      -0.1257
    730 C          15.1198   -1.7165    3.2388 C.3    92  UNL92       0.0198
    731 C          13.9553   -0.7487    3.2388 C.3    92  UNL92      -0.0517
    732 H          15.0952   -2.3536    2.3502 H      92  UNL92       0.0427
    733 H          15.0952   -2.3536    4.1273 H      92  UNL92       0.0427
    734 H          13.0084   -1.2980    3.2388 H      92  UNL92       0.0241
    735 H          13.9726   -0.1075    4.1262 H      92  UNL92       0.0241
    736 H          13.9726   -0.1075    2.3514 H      92  UNL92       0.0241
    737 CL         14.7242   -0.8338    6.1507 Cl     93  UNL93      -0.1257
    738 C          13.1818   -1.7155    6.1507 C.3    93  UNL93       0.0198
    739 C          12.0172   -0.7477    6.1507 C.3    93  UNL93      -0.0517
    740 H          13.1571   -2.3526    5.2621 H      93  UNL93       0.0427
    741 H          13.1571   -2.3526    7.0392 H      93  UNL93       0.0427
    742 H          11.0703   -1.2970    6.1507 H      93  UNL93       0.0241
    743 H          12.0345   -0.1065    7.0381 H      93  UNL93       0.0241
    744 H          12.0345   -0.1065    5.2633 H      93  UNL93       0.0241
    745 CL         13.5238   -2.3534    9.4007 Cl     94  UNL94      -0.1257
    746 C          14.5659   -0.9144    9.4007 C.3    94  UNL94       0.0198
    747 C          16.0257   -1.3162    9.4007 C.3    94  UNL94      -0.0517
    748 H          14.3257   -0.3237    8.5121 H      94  UNL94       0.0427
    749 H          14.3257   -0.3237   10.2892 H      94  UNL94       0.0427
    750 H          16.6621   -0.4255    9.4007 H      94  UNL94       0.0241
    751 H          16.2742   -1.9076   10.2881 H      94  UNL94       0.0241
    752 H          16.2742   -1.9076    8.5133 H      94  UNL94       0.0241
    753 CL         15.8173   -0.8338   12.6846 Cl     95  UNL95      -0.1257
    754 C          14.2748   -1.7155   12.6846 C.3    95  UNL95       0.0198
    755 C          13.1103   -0.7477   12.6846 C.3    95  UNL95      -0.0517
    756 H          14.2502   -2.3526   11.7960 H      95  UNL95       0.0427
    757 H          14.2502   -2.3526   13.5731 H      95  UNL95       0.0427
    758 H          12.1634   -1.2970   12.6846 H      95  UNL95       0.0241
    759 H          13.1276   -0.1065   13.5720 H      95  UNL95       0.0241
    760 H          13.1276   -0.1065   11.7972 H      95  UNL95       0.0241
    761 CL         16.6618   -0.8338   18.0106 Cl     96  UNL96      -0.1257
    762 C          15.7030   -1.7155   16.8023 C.3    96  UNL96       0.0198
    763 C          14.9791   -0.7477   15.8901 C.3    96  UNL96      -0.0517
    764 H          16.3837   -2.3526   16.2307 H      96  UNL96       0.0427
    765 H          14.9917   -2.3526   17.3354 H      96  UNL96       0.0427
    766 H          14.3905   -1.2970   15.1484 H      96  UNL96       0.0241
    767 H          14.2947   -0.1065   16.4553 H      96  UNL96       0.0241
    768 H          15.6850   -0.1065   15.3521 H      96  UNL96       0.0241
    769 CL         16.6623    2.8818   -1.1000 Cl     97  UNL97      -0.1257
    770 C          15.1198    2.0001   -1.1000 C.3    97  UNL97       0.0198
    771 C          13.9553    2.9679   -1.1000 C.3    97  UNL97      -0.0517
    772 H          15.0952    1.3630   -1.9886 H      97  UNL97       0.0427
    773 H          15.0952    1.3630   -0.2115 H      97  UNL97       0.0427
    774 H          13.0084    2.4186   -1.1000 H      97  UNL97       0.0241
    775 H          13.9726    3.6091   -0.2126 H      97  UNL97       0.0241
    776 H          13.9726    3.6091   -1.9874 H      97  UNL97       0.0241
    777 CL         16.6623    2.5728    2.5805 Cl     98  UNL98      -0.1257
    778 C          15.1198    3.4359    2.4000 C.3    98  UNL98       0.0198
    779 C          13.9553    2.4886    2.5982 C.3    98  UNL98      -0.0517
    780 H          15.0952    4.2414    3.1394 H      98  UNL98       0.0427
    781 H          15.0952    3.8776    1.3999 H      98  UNL98       0.0427
    782 H          13.0084    3.0262    2.4857 H      98  UNL98       0.0241
    783 H          13.9726    1.6793    1.8608 H      98  UNL98       0.0241
    784 H          13.9726    2.0426    3.5980 H      98  UNL98       0.0241
    785 CL         16.6623    2.8268    6.0296 Cl     99  UNL99      -0.1257
    786 C          15.1198    1.9451    6.0296 C.3    99  UNL99       0.0198
    787 C          13.9553    2.9129    6.0296 C.3    99  UNL99      -0.0517
    788 H          15.0952    1.3080    5.1410 H      99  UNL99       0.0427
    789 H          15.0952    1.3080    6.9181 H      99  UNL99       0.0427
    790 H          13.0084    2.3636    6.0296 H      99  UNL99       0.0241
    791 H          13.9726    3.5541    6.9170 H      99  UNL99       0.0241
    792 H          13.9726    3.5541    5.1422 H      99  UNL99       0.0241
    793 CL         12.1178    2.7888    9.4817 Cl    100  UNL100     -0.1257
    794 C          13.3969    4.0219    9.4817 C.3   100  UNL100      0.0198
    795 C          14.7632    3.3693    9.4817 C.3   100  UNL100     -0.0517
    796 H          13.2645    4.6456    8.5931 H     100  UNL100      0.0427
    797 H          13.2645    4.6456   10.3702 H     100  UNL100      0.0427
    798 H          15.5465    4.1341    9.4817 H     100  UNL100      0.0241
    799 H          14.9037    2.7435   10.3691 H     100  UNL100      0.0241
    800 H          14.9037    2.7435    8.5943 H     100  UNL100      0.0241
    801 CL         16.2813    2.7618   12.9093 Cl    101  UNL101     -0.1257
    802 C          14.7388    1.8801   12.9093 C.3   101  UNL101      0.0198
    803 C          13.5743    2.8479   12.9093 C.3   101  UNL101     -0.0517
    804 H          14.7142    1.2430   12.0207 H     101  UNL101      0.0427
    805 H          14.7142    1.2430   13.7978 H     101  UNL101      0.0427
    806 H          12.6274    2.2986   12.9093 H     101  UNL101      0.0241
    807 H          13.5916    3.4891   13.7967 H     101  UNL101      0.0241
    808 H          13.5916    3.4891   12.0219 H     101  UNL101      0.0241
    809 CL         13.0687    2.2959   18.0112 Cl    102  UNL102     -0.1257
    810 C          12.6967    3.2493   16.5589 C.3   102  UNL102      0.0198
    811 C          11.5080    2.6613   15.8281 C.3   102  UNL102     -0.0517
    812 H          12.4901    4.2763   16.8731 H     102  UNL102      0.0427
    813 H          13.5838    3.2504   15.9194 H     102  UNL102      0.0427
    814 H          11.2840    3.2530   14.9348 H     102  UNL102      0.0241
    815 H          11.7074    1.6329   15.5095 H     102  UNL102      0.0241
    816 H          10.6151    2.6574   16.4620 H     102  UNL102      0.0241
    817 CL         16.1464    6.4325   -0.2394 Cl    103  UNL103     -0.1257
    818 C          14.6039    6.9601   -0.9458 C.3   103  UNL103      0.0198
    819 C          13.4394    6.3810   -0.1704 C.3   103  UNL103     -0.0517
    820 H          14.5793    8.0533   -0.9244 H     103  UNL103      0.0427
    821 H          14.5793    6.6296   -1.9880 H     103  UNL103      0.0427
    822 H          12.4925    6.7097   -0.6105 H     103  UNL103      0.0241
    823 H          13.4567    5.2863   -0.1878 H     103  UNL103      0.0241
    824 H          13.4567    6.7082    0.8743 H     103  UNL103      0.0241
    825 CL         16.4823    7.7694    2.7408 Cl    104  UNL104     -0.1257
    826 C          14.9399    6.8877    2.7408 C.3   104  UNL104      0.0198
    827 C          13.7754    7.8555    2.7408 C.3   104  UNL104     -0.0517
    828 H          14.9153    6.2506    1.8522 H     104  UNL104      0.0427
    829 H          14.9153    6.2506    3.6293 H     104  UNL104      0.0427
    830 H          12.8285    7.3062    2.7408 H     104  UNL104      0.0241
    831 H          13.7927    8.4967    3.6282 H     104  UNL104      0.0241
    832 H          13.7927    8.4967    1.8534 H     104  UNL104      0.0241
    833 CL         16.6623    6.5254    5.9006 Cl    105  UNL105     -0.1257
    834 C          15.1198    5.6437    5.9006 C.3   105  UNL105      0.0198
    835 C          13.9553    6.6115    5.9006 C.3   105  UNL105     -0.0517
    836 H          15.0952    5.0066    5.0120 H     105  UNL105      0.0427
    837 H          15.0952    5.0066    6.7891 H     105  UNL105      0.0427
    838 H          13.0084    6.0622    5.9006 H     105  UNL105      0.0241
    839 H          13.9726    7.2527    6.7880 H     105  UNL105      0.0241
    840 H          13.9726    7.2527    5.0132 H     105  UNL105      0.0241
    841 CL         16.6463    7.8754    9.1516 Cl    106  UNL106     -0.1257
    842 C          15.1038    6.9937    9.1516 C.3   106  UNL106      0.0198
    843 C          13.9393    7.9615    9.1516 C.3   106  UNL106     -0.0517
    844 H          15.0792    6.3566    8.2630 H     106  UNL106      0.0427
    845 H          15.0792    6.3566   10.0401 H     106  UNL106      0.0427
    846 H          12.9924    7.4122    9.1516 H     106  UNL106      0.0241
    847 H          13.9566    8.6027   10.0390 H     106  UNL106      0.0241
    848 H          13.9566    8.6027    8.2642 H     106  UNL106      0.0241
    849 CL         16.6623    6.4813   12.2854 Cl    107  UNL107     -0.1257
    850 C          15.1198    5.5996   12.2854 C.3   107  UNL107      0.0198
    851 C          13.9553    6.5674   12.2854 C.3   107  UNL107     -0.0517
    852 H          15.0952    4.9625   11.3968 H     107  UNL107      0.0427
    853 H          15.0952    4.9625   13.1739 H     107  UNL107      0.0427
    854 H          13.0084    6.0181   12.2854 H     107  UNL107      0.0241
    855 H          13.9726    7.2086   13.1728 H     107  UNL107      0.0241
    856 H          13.9726    7.2086   11.3980 H     107  UNL107      0.0241
    857 CL         15.8292    6.4953   15.8365 Cl    108  UNL108     -0.1257
    858 C          14.2867    5.6137   15.8365 C.3   108  UNL108      0.0198
    859 C          13.1222    6.5815   15.8365 C.3   108  UNL108     -0.0517
    860 H          14.2621    4.9765   14.9479 H     108  UNL108      0.0427
    861 H          14.2621    4.9765   16.7249 H     108  UNL108      0.0427
    862 H          12.1753    6.0321   15.8365 H     108  UNL108      0.0241
    863 H          13.1395    7.2226   16.7238 H     108  UNL108      0.0241
    864 H          13.1395    7.2226   14.9491 H     108  UNL108      0.0241
    865 CL         16.6624   11.5594   -1.1000 Cl    109  UNL109     -0.1257
    866 C          15.1200   10.6777   -1.1000 C.3   109  UNL109      0.0198
    867 C          13.9555   11.6455   -1.1000 C.3   109  UNL109     -0.0517
    868 H          15.0954   10.0406   -1.9886 H     109  UNL109      0.0427
    869 H          15.0954   10.0406   -0.2115 H     109  UNL109      0.0427
    870 H          13.0086   11.0962   -1.1000 H     109  UNL109      0.0241
    871 H          13.9728   12.2867   -0.2126 H     109  UNL109      0.0241
    872 H          13.9728   12.2867   -1.9874 H     109  UNL109      0.0241
    873 CL         16.6623   11.5110    2.5578 Cl    110  UNL110     -0.1257
    874 C          15.1198   10.6293    2.5578 C.3   110  UNL110      0.0198
    875 C          13.9553   11.5971    2.5578 C.3   110  UNL110     -0.0517
    876 H          15.0952    9.9922    1.6692 H     110  UNL110      0.0427
    877 H          15.0952    9.9922    3.4463 H     110  UNL110      0.0427
    878 H          13.0084   11.0478    2.5578 H     110  UNL110      0.0241
    879 H          13.9726   12.2383    3.4452 H     110  UNL110      0.0241
    880 H          13.9726   12.2383    1.6704 H     110  UNL110      0.0241
    881 CL         16.6623   10.4740    5.9006 Cl    111  UNL111     -0.1257
    882 C          15.1198    9.5923    5.9006 C.3   111  UNL111      0.0198
    883 C          13.9553   10.5601    5.9006 C.3   111  UNL111     -0.0517
    884 H          15.0952    8.9552    5.0120 H     111  UNL111      0.0427
    885 H          15.0952    8.9552    6.7891 H     111  UNL111      0.0427
    886 H          13.0084   10.0108    5.9006 H     111  UNL111      0.0241
    887 H          13.9726   11.2013    6.7880 H     111  UNL111      0.0241
    888 H          13.9726   11.2013    5.0132 H     111  UNL111      0.0241
    889 CL         16.6623   11.7680    9.3116 Cl    112  UNL112     -0.1257
    890 C          15.1198   10.8863    9.3116 C.3   112  UNL112      0.0198
    891 C          13.9553   11.8541    9.3116 C.3   112  UNL112     -0.0517
    892 H          15.0952   10.2492    8.4230 H     112  UNL112      0.0427
    893 H          15.0952   10.2492   10.2001 H     112  UNL112      0.0427
    894 H          13.0084   11.3048    9.3116 H     112  UNL112      0.0241
    895 H          13.9726   12.4953   10.1990 H     112  UNL112      0.0241
    896 H          13.9726   12.4953    8.4242 H     112  UNL112      0.0241
    897 CL         16.6623   10.8051   13.2387 Cl    113  UNL113     -0.1257
    898 C          15.1198   11.6085   12.8753 C.3   113  UNL113      0.0198
    899 C          13.9553   10.7267   13.2742 C.3   113  UNL113     -0.0517
    900 H          15.0952   12.5552   13.4224 H     113  UNL113      0.0427
    901 H          15.0952   11.8228   11.8032 H     113  UNL113      0.0427
    902 H          13.0084   11.2272   13.0478 H     113  UNL113      0.0241
    903 H          13.9726    9.7768   12.7299 H     113  UNL113      0.0241
    904 H          13.9726   10.5082   14.3470 H     113  UNL113      0.0241
    905 CL         16.6623   10.1249   17.1222 Cl    114  UNL114     -0.1257
    906 C          15.1198    9.2432   17.1222 C.3   114  UNL114      0.0198
    907 C          13.9553   10.2110   17.1222 C.3   114  UNL114     -0.0517
    908 H          15.0952    8.6061   16.2336 H     114  UNL114      0.0427
    909 H          15.0952    8.6061   18.0107 H     114  UNL114      0.0427
    910 H          13.0084    9.6617   17.1222 H     114  UNL114      0.0241
    911 H          13.9726   10.8522   18.0096 H     114  UNL114      0.0241
    912 H          13.9726   10.8522   16.2348 H     114  UNL114      0.0241
    913 CL         16.6621   14.8626   -1.1000 Cl    115  UNL115     -0.1257
    914 C          15.0126   15.5228   -1.1000 C.3   115  UNL115      0.0198
    915 C          15.0468   17.0366   -1.1000 C.3   115  UNL115     -0.0517
    916 H          14.4982   15.1461   -1.9886 H     115  UNL115      0.0427
    917 H          14.4982   15.1461   -0.2115 H     115  UNL115      0.0427
    918 H          14.0279   17.4369   -1.1000 H     115  UNL115      0.0241
    919 H          15.5598   17.4216   -0.2126 H     115  UNL115      0.0241
    920 H          15.5598   17.4216   -1.9874 H     115  UNL115      0.0241
    921 CL         15.6148   14.0129    2.5169 Cl    116  UNL116     -0.1257
    922 C          14.6724   15.5191    2.5169 C.3   116  UNL116      0.0198
    923 C          15.5931   16.7212    2.5169 C.3   116  UNL116     -0.0517
    924 H          14.0348   15.5183    1.6282 H     116  UNL116      0.0427
    925 H          14.0348   15.5183    3.4054 H     116  UNL116      0.0427
    926 H          15.0065   17.6455    2.5169 H     116  UNL116      0.0241
    927 H          16.2345   16.7295    3.4043 H     116  UNL116      0.0241
    928 H          16.2345   16.7295    1.6294 H     116  UNL116      0.0241
    929 CL         16.6624   16.9185    5.9576 Cl    117  UNL117     -0.1257
    930 C          15.1200   16.0368    5.9576 C.3   117  UNL117      0.0198
    931 C          13.9555   17.0046    5.9576 C.3   117  UNL117     -0.0517
    932 H          15.0954   15.3997    5.0690 H     117  UNL117      0.0427
    933 H          15.0954   15.3997    6.8461 H     117  UNL117      0.0427
    934 H          13.0086   16.4553    5.9576 H     117  UNL117      0.0241
    935 H          13.9728   17.6458    6.8450 H     117  UNL117      0.0241
    936 H          13.9728   17.6458    5.0702 H     117  UNL117      0.0241
    937 CL         16.6623   15.6895    9.4007 Cl    118  UNL118     -0.1257
    938 C          15.1198   14.8078    9.4007 C.3   118  UNL118      0.0198
    939 C          13.9553   15.7756    9.4007 C.3   118  UNL118     -0.0517
    940 H          15.0952   14.1707    8.5121 H     118  UNL118      0.0427
    941 H          15.0952   14.1707   10.2892 H     118  UNL118      0.0427
    942 H          13.0084   15.2263    9.4007 H     118  UNL118      0.0241
    943 H          13.9726   16.4168   10.2881 H     118  UNL118      0.0241
    944 H          13.9726   16.4168    8.5133 H     118  UNL118      0.0241
    945 CL         16.6624   16.9185   12.9407 Cl    119  UNL119     -0.1257
    946 C          15.1200   16.0368   12.9407 C.3   119  UNL119      0.0198
    947 C          13.9555   17.0046   12.9407 C.3   119  UNL119     -0.0517
    948 H          15.0954   15.3997   12.0521 H     119  UNL119      0.0427
    949 H          15.0954   15.3997   13.8292 H     119  UNL119      0.0427
    950 H          13.0086   16.4553   12.9407 H     119  UNL119      0.0241
    951 H          13.9728   17.6458   13.8281 H     119  UNL119      0.0241
    952 H          13.9728   17.6458   12.0533 H     119  UNL119      0.0241
    953 CL         16.6623   15.7033   17.1221 Cl    120  UNL120     -0.1257
    954 C          15.1198   14.8217   17.1221 C.3   120  UNL120      0.0198
    955 C          13.9553   15.7895   17.1221 C.3   120  UNL120     -0.0517
    956 H          15.0952   14.1845   16.2335 H     120  UNL120      0.0427
    957 H          15.0952   14.1845   18.0106 H     120  UNL120      0.0427
    958 H          13.0084   15.2401   17.1221 H     120  UNL120      0.0241
    959 H          13.9726   16.4306   18.0095 H     120  UNL120      0.0241
    960 H          13.9726   16.4306   16.2347 H     120  UNL120      0.0241
@<TRIPOS>BOND
     1     1     2    1
     2     2     3    1
     3     2     4    1
     4     2     5    1
     5     3     6    1
     6     3     7    1
     7     3     8    1
     8     9    10    1
     9    10    11    1
    10    10    12    1
    11    10    13    1
    12    11    14    1
    13    11    15    1
    14    11    16    1
    15    17    18    1
    16    18    19    1
    17    18    20    1
    18    18    21    1
    19    19    22    1
    20    19    23    1
    21    19    24    1
    22    25    26    1
    23    26    27    1
    24    26    28    1
    25    26    29    1
    26    27    30    1
    27    27    31    1
    28    27    32    1
    29    33    34    1
    30    34    35    1
    31    34    36    1
    32    34    37    1
    33    35    38    1
    34    35    39    1
    35    35    40    1
    36    41    42    1
    37    42    43    1
    38    42    44    1
    39    42    45    1
    40    43    46    1
    41    43    47    1
    42    43    48    1
    43    49    50    1
    44    50    51    1
    45    50    52    1
    46    50    53    1
    47    51    54    1
    48    51    55    1
    49    51    56    1
    50    57    58    1
    51    58    59    1
    52    58    60    1
    53    58    61    1
    54    59    62    1
    55    59    63    1
    56    59    64    1
    57    65    66    1
    58    66    67    1
    59    66    68    1
    60    66    69    1
    61    67    70    1
    62    67    71    1
    63    67    72    1
    64    73    74    1
    65    74    75    1
    66    74    76    1
    67    74    77    1
    68    75    78    1
    69    75    79    1
    70    75    80    1
    71    81    82    1
    72    82    83    1
    73    82    84    1
    74    82    85    1
    75    83    86    1
    76    83    87    1
    77    83    88    1
    78    89    90    1
    79    90    91    1
    80    90    92    1
    81    90    93    1
    82    91    94    1
    83    91    95    1
    84    91    96    1
    85    97    98    1
    86    98    99    1
    87    98   100    1
    88    98   101    1
    89    99   102    1
    90    99   103    1
    91    99   104    1
    92   105   106    1
    93   106   107    1
    94   106   108    1
    95   106   109    1
    96   107   110    1
    97   107   111    1
    98   107   112    1
    99   113   114    1
   100   114   115    1
   101   114   116    1
   102   114   117    1
   103   115   118    1
   104   115   119    1
   105   115   120    1
   106   121   122    1
   107   122   123    1
   108   122   124    1
   109   122   125    1
   110   123   126    1
   111   123   127    1
   112   123   128    1
   113   129   130    1
   114   130   131    1
   115   130   132    1
   116   130   133    1
   117   131   134    1
   118   131   135    1
   119   131   136    1
   120   137   138    1
   121   138   139    1
   122   138   140    1
   123   138   141    1
   124   139   142    1
   125   139   143    1
   126   139   144    1
   127   145   146    1
   128   146   147    1
   129   146   148    1
   130   146   149    1
   131   147   150    1
   132   147   151    1
   133   147   152    1
   134   153   154    1
   135   154   155    1
   136   154   156    1
   137   154   157    1
   138   155   158    1
   139   155   159    1
   140   155   160    1
   141   161   162    1
   142   162   163    1
   143   162   164    1
   144   162   165    1
   145   163   166    1
   146   163   167    1
   147   163   168    1
   148   169   170    1
   149   170   171    1
   150   170   172    1
   151   170   173    1
   152   171   174    1
   153   171   175    1
   154   171   176    1
   155   177   178    1
   156   178   179    1
   157   178   180    1
   158   178   181    1
   159   179   182    1
   160   179   183    1
   161   179   184    1
   162   185   186    1
   163   186   187    1
   164   186   188    1
   165   186   189    1
   166   187   190    1
   167   187   191    1
   168   187   192    1
   169   193   194    1
   170   194   195    1
   171   194   196    1
   172   194   197    1
   173   195   198    1
   174   195   199    1
   175   195   200    1
   176   201   202    1
   177   202   203    1
   178   202   204    1
   179   202   205    1
   180   203   206    1
   181   203   207    1
   182   203   208    1
   183   209   210    1
   184   210   211    1
   185   210   212    1
   186   210   213    1
   187   211   214    1
   188   211   215    1
   189   211   216    1
   190   217   218    1
   191   218   219    1
   192   218   220    1
   193   218   221    1
   194   219   222    1
   195   219   223    1
   196   219   224    1
   197   225   226    1
   198   226   227    1
   199   226   228    1
   200   226   229    1
   201   227   230    1
   202   227   231    1
   203   227   232    1
   204   233   234    1
   205   234   235    1
   206   234   236    1
   207   234   237    1
   208   235   238    1
   209   235   239    1
   210   235   240    1
   211   241   242    1
   212   242   243    1
   213   242   244    1
   214   242   245    1
   215   243   246    1
   216   243   247    1
   217   243   248    1
   218   249   250    1
   219   250   251    1
   220   250   252    1
   221   250   253    1
   222   251   254    1
   223   251   255    1
   224   251   256    1
   225   257   258    1
   226   258   259    1
   227   258   260    1
   228   258   261    1
   229   259   262    1
   230   259   263    1
   231   259   264    1
   232   265   266    1
   233   266   267    1
   234   266   268    1
   235   266   269    1
   236   267   270    1
   237   267   271    1
   238   267   272    1
   239   273   274    1
   240   274   275    1
   241   274   276    1
   242   274   277    1
   243   275   278    1
   244   275   279    1
   245   275   280    1
   246   281   282    1
   247   282   283    1
   248   282   284    1
   249   282   285    1
   250   283   286    1
   251   283   287    1
   252   283   288    1
   253   289   290    1
   254   290   291    1
   255   290   292    1
   256   290   293    1
   257   291   294    1
   258   291   295    1
   259   291   296    1
   260   297   298    1
   261   298   299    1
   262   298   300    1
   263   298   301    1
   264   299   302    1
   265   299   303    1
   266   299   304    1
   267   305   306    1
   268   306   307    1
   269   306   308    1
   270   306   309    1
   271   307   310    1
   272   307   311    1
   273   307   312    1
   274   313   314    1
   275   314   315    1
   276   314   316    1
   277   314   317    1
   278   315   318    1
   279   315   319    1
   280   315   320    1
   281   321   322    1
   282   322   323    1
   283   322   324    1
   284   322   325    1
   285   323   326    1
   286   323   327    1
   287   323   328    1
   288   329   330    1
   289   330   331    1
   290   330   332    1
   291   330   333    1
   292   331   334    1
   293   331   335    1
   294   331   336    1
   295   337   338    1
   296   338   339    1
   297   338   340    1
   298   338   341    1
   299   339   342    1
   300   339   343    1
   301   339   344    1
   302   345   346    1
   303   346   347    1
   304   346   348    1
   305   346   349    1
   306   347   350    1
   307   347   351    1
   308   347   352    1
   309   353   354    1
   310   354   355    1
   311   354   356    1
   312   354   357    1
   313   355   358    1
   314   355   359    1
   315   355   360    1
   316   361   362    1
   317   362   363    1
   318   362   364    1
   319   362   365    1
   320   363   366    1
   321   363   367    1
   322   363   368    1
   323   369   370    1
   324   370   371    1
   325   370   372    1
   326   370   373    1
   327   371   374    1
   328   371   375    1
   329   371   376    1
   330   377   378    1
   331   378   379    1
   332   378   380    1
   333   378   381    1
   334   379   382    1
   335   379   383    1
   336   379   384    1
   337   385   386    1
   338   386   387    1
   339   386   388    1
   340   386   389    1
   341   387   390    1
   342   387   391    1
   343   387   392    1
   344   393   394    1
   345   394   395    1
   346   394   396    1
   347   394   397    1
   348   395   398    1
   349   395   399    1
   350   395   400    1
   351   401   402    1
   352   402   403    1
   353   402   404    1
   354   402   405    1
   355   403   406    1
   356   403   407    1
   357   403   408    1
   358   409   410    1
   359   410   411    1
   360   410   412    1
   361   410   413    1
   362   411   414    1
   363   411   415    1
   364   411   416    1
   365   417   418    1
   366   418   419    1
   367   418   420    1
   368   418   421    1
   369   419   422    1
   370   419   423    1
   371   419   424    1
   372   425   426    1
   373   426   427    1
   374   426   428    1
   375   426   429    1
   376   427   430    1
   377   427   431    1
   378   427   432    1
   379   433   434    1
   380   434   435    1
   381   434   436    1
   382   434   437    1
   383   435   438    1
   384   435   439    1
   385   435   440    1
   386   441   442    1
   387   442   443    1
   388   442   444    1
   389   442   445    1
   390   443   446    1
   391   443   447    1
   392   443   448    1
   393   449   450    1
   394   450   451    1
   395   450   452    1
   396   450   453    1
   397   451   454    1
   398   451   455    1
   399   451   456    1
   400   457   458    1
   401   458   459    1
   402   458   460    1
   403   458   461    1
   404   459   462    1
   405   459   463    1
   406   459   464    1
   407   465   466    1
   408   466   467    1
   409   466   468    1
   410   466   469    1
   411   467   470    1
   412   467   471    1
   413   467   472    1
   414   473   474    1
   415   474   475    1
   416   474   476    1
   417   474   477    1
   418   475   478    1
   419   475   479    1
   420   475   480    1
   421   481   482    1
   422   482   483    1
   423   482   484    1
   424   482   485    1
   425   483   486    1
   426   483   487    1
   427   483   488    1
   428   489   490    1
   429   490   491    1
   430   490   492    1
   431   490   493    1
   432   491   494    1
   433   491   495    1
   434   491   496    1
   435   497   498    1
   436   498   499    1
   437   498   500    1
   438   498   501    1
   439   499   502    1
   440   499   503    1
   441   499   504    1
   442   505   506    1
   443   506   507    1
   444   506   508    1
   445   506   509    1
   446   507   510    1
   447   507   511    1
   448   507   512    1
   449   513   514    1
   450   514   515    1
   451   514   516    1
   452   514   517    1
   453   515   518    1
   454   515   519    1
   455   515   520    1
   456   521   522    1
   457   522   523    1
   458   522   524    1
   459   522   525    1
   460   523   526    1
   461   523   527    1
   462   523   528    1
   463   529   530    1
   464   530   531    1
   465   530   532    1
   466   530   533    1
   467   531   534    1
   468   531   535    1
   469   531   536    1
   470   537   538    1
   471   538   539    1
   472   538   540    1
   473   538   541    1
   474   539   542    1
   475   539   543    1
   476   539   544    1
   477   545   546    1
   478   546   547    1
   479   546   548    1
   480   546   549    1
   481   547   550    1
   482   547   551    1
   483   547   552    1
   484   553   554    1
   485   554   555    1
   486   554   556    1
   487   554   557    1
   488   555   558    1
   489   555   559    1
   490   555   560    1
   491   561   562    1
   492   562   563    1
   493   562   564    1
   494   562   565    1
   495   563   566    1
   496   563   567    1
   497   563   568    1
   498   569   570    1
   499   570   571    1
   500   570   572    1
   501   570   573    1
   502   571   574    1
   503   571   575    1
   504   571   576    1
   505   577   578    1
   506   578   579    1
   507   578   580    1
   508   578   581    1
   509   579   582    1
   510   579   583    1
   511   579   584    1
   512   585   586    1
   513   586   587    1
   514   586   588    1
   515   586   589    1
   516   587   590    1
   517   587   591    1
   518   587   592    1
   519   593   594    1
   520   594   595    1
   521   594   596    1
   522   594   597    1
   523   595   598    1
   524   595   599    1
   525   595   600    1
   526   601   602    1
   527   602   603    1
   528   602   604    1
   529   602   605    1
   530   603   606    1
   531   603   607    1
   532   603   608    1
   533   609   610    1
   534   610   611    1
   535   610   612    1
   536   610   613    1
   537   611   614    1
   538   611   615    1
   539   611   616    1
   540   617   618    1
   541   618   619    1
   542   618   620    1
   543   618   621    1
   544   619   622    1
   545   619   623    1
   546   619   624    1
   547   625   626    1
   548   626   627    1
   549   626   628    1
   550   626   629    1
   551   627   630    1
   552   627   631    1
   553   627   632    1
   554   633   634    1
   555   634   635    1
   556   634   636    1
   557   634   637    1
   558   635   638    1
   559   635   639    1
   560   635   640    1
   561   641   642    1
   562   642   643    1
   563   642   644    1
   564   642   645    1
   565   643   646    1
   566   643   647    1
   567   643   648    1
   568   649   650    1
   569   650   651    1
   570   650   652    1
   571   650   653    1
   572   651   654    1
   573   651   655    1
   574   651   656    1
   575   657   658    1
   576   658   659    1
   577   658   660    1
   578   658   661    1
   579   659   662    1
   580   659   663    1
   581   659   664    1
   582   665   666    1
   583   666   667    1
   584   666   668    1
   585   666   669    1
   586   667   670    1
   587   667   671    1
   588   667   672    1
   589   673   674    1
   590   674   675    1
   591   674   676    1
   592   674   677    1
   593   675   678    1
   594   675   679    1
   595   675   680    1
   596   681   682    1
   597   682   683    1
   598   682   684    1
   599   682   685    1
   600   683   686    1
   601   683   687    1
   602   683   688    1
   603   689   690    1
   604   690   691    1
   605   690   692    1
   606   690   693    1
   607   691   694    1
   608   691   695    1
   609   691   696    1
   610   697   698    1
   611   698   699    1
   612   698   700    1
   613   698   701    1
   614   699   702    1
   615   699   703    1
   616   699   704    1
   617   705   706    1
   618   706   707    1
   619   706   708    1
   620   706   709    1
   621   707   710    1
   622   707   711    1
   623   707   712    1
   624   713   714    1
   625   714   715    1
   626   714   716    1
   627   714   717    1
   628   715   718    1
   629   715   719    1
   630   715   720    1
   631   721   722    1
   632   722   723    1
   633   722   724    1
   634   722   725    1
   635   723   726    1
   636   723   727    1
   637   723   728    1
   638   729   730    1
   639   730   731    1
   640   730   732    1
   641   730   733    1
   642   731   734    1
   643   731   735    1
   644   731   736    1
   645   737   738    1
   646   738   739    1
   647   738   740    1
   648   738   741    1
   649   739   742    1
   650   739   743    1
   651   739   744    1
   652   745   746    1
   653   746   747    1
   654   746   748    1
   655   746   749    1
   656   747   750    1
   657   747   751    1
   658   747   752    1
   659   753   754    1
   660   754   755    1
   661   754   756    1
   662   754   757    1
   663   755   758    1
   664   755   759    1
   665   755   760    1
   666   761   762    1
   667   762   763    1
   668   762   764    1
   669   762   765    1
   670   763   766    1
   671   763   767    1
   672   763   768    1
   673   769   770    1
   674   770   771    1
   675   770   772    1
   676   770   773    1
   677   771   774    1
   678   771   775    1
   679   771   776    1
   680   777   778    1
   681   778   779    1
   682   778   780    1
   683   778   781    1
   684   779   782    1
   685   779   783    1
   686   779   784    1
   687   785   786    1
   688   786   787    1
   689   786   788    1
   690   786   789    1
   691   787   790    1
   692   787   791    1
   693   787   792    1
   694   793   794    1
   695   794   795    1
   696   794   796    1
   697   794   797    1
   698   795   798    1
   699   795   799    1
   700   795   800    1
   701   801   802    1
   702   802   803    1
   703   802   804    1
   704   802   805    1
   705   803   806    1
   706   803   807    1
   707   803   808    1
   708   809   810    1
   709   810   811    1
   710   810   812    1
   711   810   813    1
   712   811   814    1
   713   811   815    1
   714   811   816    1
   715   817   818    1
   716   818   819    1
   717   818   820    1
   718   818   821    1
   719   819   822    1
   720   819   823    1
   721   819   824    1
   722   825   826    1
   723   826   827    1
   724   826   828    1
   725   826   829    1
   726   827   830    1
   727   827   831    1
   728   827   832    1
   729   833   834    1
   730   834   835    1
   731   834   836    1
   732   834   837    1
   733   835   838    1
   734   835   839    1
   735   835   840    1
   736   841   842    1
   737   842   843    1
   738   842   844    1
   739   842   845    1
   740   843   846    1
   741   843   847    1
   742   843   848    1
   743   849   850    1
   744   850   851    1
   745   850   852    1
   746   850   853    1
   747   851   854    1
   748   851   855    1
   749   851   856    1
   750   857   858    1
   751   858   859    1
   752   858   860    1
   753   858   861    1
   754   859   862    1
   755   859   863    1
   756   859   864    1
   757   865   866    1
   758   866   867    1
   759   866   868    1
   760   866   869    1
   761   867   870    1
   762   867   871    1
   763   867   872    1
   764   873   874    1
   765   874   875    1
   766   874   876    1
   767   874   877    1
   768   875   878    1
   769   875   879    1
   770   875   880    1
   771   881   882    1
   772   882   883    1
   773   882   884    1
   774   882   885    1
   775   883   886    1
   776   883   887    1
   777   883   888    1
   778   889   890    1
   779   890   891    1
   780   890   892    1
   781   890   893    1
   782   891   894    1
   783   891   895    1
   784   891   896    1
   785   897   898    1
   786   898   899    1
   787   898   900    1
   788   898   901    1
   789   899   902    1
   790   899   903    1
   791   899   904    1
   792   905   906    1
   793   906   907    1
   794   906   908    1
   795   906   909    1
   796   907   910    1
   797   907   911    1
   798   907   912    1
   799   913   914    1
   800   914   915    1
   801   914   916    1
   802   914   917    1
   803   915   918    1
   804   915   919    1
   805   915   920    1
   806   921   922    1
   807   922   923    1
   808   922   924    1
   809   922   925    1
   810   923   926    1
   811   923   927    1
   812   923   928    1
   813   929   930    1
   814   930   931    1
   815   930   932    1
   816   930   933    1
   817   931   934    1
   818   931   935    1
   819   931   936    1
   820   937   938    1
   821   938   939    1
   822   938   940    1
   823   938   941    1
   824   939   942    1
   825   939   943    1
   826   939   944    1
   827   945   946    1
   828   946   947    1
   829   946   948    1
   830   946   949    1
   831   947   950    1
   832   947   951    1
   833   947   952    1
   834   953   954    1
   835   954   955    1
   836   954   956    1
   837   954   957    1
   838   955   958    1
   839   955   959    1
   840   955   960    1
