@<TRIPOS>MOLECULE
*****
 39 26 0 0 0
SMALL
GASTEIGER

@<TRIPOS>ATOM
      1 O           6.2509    2.8589    0.1627 O.3     1  HOH1       -0.4105
      2 H           6.7195    3.3850    0.8279 H       0  HOH0        0.2052
      3 H           5.6174    2.3387    0.6794 H       0  HOH0        0.2052
      4 O           3.1987    0.4643    3.6263 O.3     2  HOH2       -0.4105
      5 H           3.6674    1.1456    4.1313 H       0  HOH0        0.2052
      6 H           2.5652    0.0967    4.2607 H       0  HOH0        0.2052
      7 O           6.1083    1.2609    3.0321 O.3     3  HOH3       -0.4105
      8 H           6.6973    1.9810    3.3034 H       0  HOH0        0.2052
      9 H           5.3409    1.7161    2.6541 H       0  HOH0        0.2052
     10 O           3.1987    0.4643    4.4284 O.3     4  HOH4       -0.4105
     11 H           3.6674    1.1456    4.9335 H       0  HOH0        0.2052
     12 H           2.5652    0.0967    5.0629 H       0  HOH0        0.2052
     13 O           6.2509    2.9643    4.4284 O.3     5  HOH5       -0.4105
     14 H           6.7195    3.6456    4.9335 H       0  HOH0        0.2052
     15 H           5.6174    2.5967    5.0629 H       0  HOH0        0.2052
     16 O           3.1987    0.4591    7.7244 O.3     6  HOH6       -0.4105
     17 H           3.6674    1.1348    8.2370 H       0  HOH0        0.2052
     18 H           2.5652    0.0846    8.3548 H       0  HOH0        0.2052
     19 O           5.9384    2.9643    7.7305 O.3     7  HOH7       -0.4105
     20 H           6.4070    3.6456    8.2356 H       0  HOH0        0.2052
     21 H           5.3049    2.5967    8.3650 H       0  HOH0        0.2052
     22 O           3.1987    6.2664    0.3241 O.3     8  HOH8       -0.4105
     23 H           3.6674    6.9477    0.8292 H       0  HOH0        0.2052
     24 H           2.5652    5.8989    0.9586 H       0  HOH0        0.2052
     25 O           6.5009    6.2664    0.3241 O.3     9  HOH9       -0.4105
     26 H           6.9695    6.9477    0.8292 H       0  HOH0        0.2052
     27 H           5.8674    5.8989    0.9586 H       0  HOH0        0.2052
     28 O           3.1987    6.2664    3.6263 O.3    10  HOH10      -0.4105
     29 H           3.6674    6.9477    4.1313 H       0  HOH0        0.2052
     30 H           2.5652    5.8989    4.2607 H       0  HOH0        0.2052
     31 O           6.5009    6.2664    3.6263 O.3    11  HOH11      -0.4105
     32 H           6.9695    6.9477    4.1313 H       0  HOH0        0.2052
     33 H           5.8674    5.8989    4.2607 H       0  HOH0        0.2052
     34 O           3.1987    6.2664    6.9284 O.3    12  HOH12      -0.4105
     35 H           3.6674    6.9477    7.4335 H       0  HOH0        0.2052
     36 H           2.5652    5.8989    7.5629 H       0  HOH0        0.2052
     37 O           6.5009    6.2664    6.9284 O.3    13  HOH13      -0.4105
     38 H           6.9695    6.9477    7.4335 H       0  HOH0        0.2052
     39 H           5.8674    5.8989    7.5629 H       0  HOH0        0.2052
@<TRIPOS>BOND
     1     1     2    1
     2     1     3    1
     3     4     5    1
     4     4     6    1
     5     7     8    1
     6     7     9    1
     7    10    11    1
     8    10    12    1
     9    13    14    1
    10    13    15    1
    11    16    17    1
    12    16    18    1
    13    19    20    1
    14    19    21    1
    15    22    23    1
    16    22    24    1
    17    25    26    1
    18    25    27    1
    19    28    29    1
    20    28    30    1
    21    31    32    1
    22    31    33    1
    23    34    35    1
    24    34    36    1
    25    37    38    1
    26    37    39    1
