@<TRIPOS>MOLECULE
*****
 81 54 0 0 0
SMALL
GASTEIGER

@<TRIPOS>ATOM
      1 O           1.3409    1.0847    2.2115 O.3     1  HOH1       -0.4105
      2 H           1.8095    1.7660    2.7166 H       0  HOH0        0.2052
      3 H           0.7074    0.7171    2.8459 H       0  HOH0        0.2052
      4 O           1.3409    1.0847    5.5555 O.3     2  HOH2       -0.4105
      5 H           1.8095    1.7660    6.0606 H       0  HOH0        0.2052
      6 H           0.7074    0.7171    6.1899 H       0  HOH0        0.2052
      7 O           1.3409    1.0847    8.8995 O.3     3  HOH3       -0.4105
      8 H           1.8095    1.7660    9.4046 H       0  HOH0        0.2052
      9 H           0.7074    0.7171    9.5339 H       0  HOH0        0.2052
     10 O           1.3409    4.4287    2.2115 O.3     4  HOH4       -0.4105
     11 H           1.8095    5.1100    2.7166 H       0  HOH0        0.2052
     12 H           0.7074    4.0611    2.8459 H       0  HOH0        0.2052
     13 O           1.3409    4.4287    5.5555 O.3     5  HOH5       -0.4105
     14 H           1.8095    5.1100    6.0606 H       0  HOH0        0.2052
     15 H           0.7074    4.0611    6.1899 H       0  HOH0        0.2052
     16 O           1.3409    4.4287    8.8995 O.3     6  HOH6       -0.4105
     17 H           1.8095    5.1100    9.4046 H       0  HOH0        0.2052
     18 H           0.7074    4.0611    9.5339 H       0  HOH0        0.2052
     19 O           1.3409    7.7727    2.2115 O.3     7  HOH7       -0.4105
     20 H           1.8095    8.4540    2.7166 H       0  HOH0        0.2052
     21 H           0.7074    7.4051    2.8459 H       0  HOH0        0.2052
     22 O           1.3409    7.7727    5.5555 O.3     8  HOH8       -0.4105
     23 H           1.8095    8.4540    6.0606 H       0  HOH0        0.2052
     24 H           0.7074    7.4051    6.1899 H       0  HOH0        0.2052
     25 O           1.3409    7.7727    8.8995 O.3     9  HOH9       -0.4105
     26 H           1.8095    8.4540    9.4046 H       0  HOH0        0.2052
     27 H           0.7074    7.4051    9.5339 H       0  HOH0        0.2052
     28 O           4.6849    1.0847    2.2115 O.3    10  HOH10      -0.4105
     29 H           5.1536    1.7660    2.7166 H       0  HOH0        0.2052
     30 H           4.0514    0.7171    2.8459 H       0  HOH0        0.2052
     31 O           4.6849    1.0847    5.5555 O.3    11  HOH11      -0.4105
     32 H           5.1536    1.7660    6.0606 H       0  HOH0        0.2052
     33 H           4.0514    0.7171    6.1899 H       0  HOH0        0.2052
     34 O           4.6849    1.0847    8.8995 O.3    12  HOH12      -0.4105
     35 H           5.1536    1.7660    9.4046 H       0  HOH0        0.2052
     36 H           4.0514    0.7171    9.5339 H       0  HOH0        0.2052
     37 O           4.6849    4.4287    2.2115 O.3    13  HOH13      -0.4105
     38 H           5.1536    5.1100    2.7166 H       0  HOH0        0.2052
     39 H           4.0514    4.0611    2.8459 H       0  HOH0        0.2052
     40 O           4.6849    4.4287    5.5555 O.3    14  HOH14      -0.4105
     41 H           5.1536    5.1100    6.0606 H       0  HOH0        0.2052
     42 H           4.0514    4.0611    6.1899 H       0  HOH0        0.2052
     43 O           4.6849    4.4287    8.8995 O.3    15  HOH15      -0.4105
     44 H           5.1536    5.1100    9.4046 H       0  HOH0        0.2052
     45 H           4.0514    4.0611    9.5339 H       0  HOH0        0.2052
     46 O           4.6849    7.7727    2.2115 O.3    16  HOH16      -0.4105
     47 H           5.1536    8.4540    2.7166 H       0  HOH0        0.2052
     48 H           4.0514    7.4051    2.8459 H       0  HOH0        0.2052
     49 O           4.6849    7.7727    5.5555 O.3    17  HOH17      -0.4105
     50 H           5.1536    8.4540    6.0606 H       0  HOH0        0.2052
     51 H           4.0514    7.4051    6.1899 H       0  HOH0        0.2052
     52 O           4.6849    7.7727    8.8995 O.3    18  HOH18      -0.4105
     53 H           5.1536    8.4540    9.4046 H       0  HOH0        0.2052
     54 H           4.0514    7.4051    9.5339 H       0  HOH0        0.2052
     55 O           8.0289    1.0847    2.2115 O.3    19  HOH19      -0.4105
     56 H           8.4976    1.7660    2.7166 H       0  HOH0        0.2052
     57 H           7.3954    0.7171    2.8459 H       0  HOH0        0.2052
     58 O           8.0289    1.0847    5.5555 O.3    20  HOH20      -0.4105
     59 H           8.4976    1.7660    6.0606 H       0  HOH0        0.2052
     60 H           7.3954    0.7171    6.1899 H       0  HOH0        0.2052
     61 O           8.0289    1.0847    8.8995 O.3    21  HOH21      -0.4105
     62 H           8.4976    1.7660    9.4046 H       0  HOH0        0.2052
     63 H           7.3954    0.7171    9.5339 H       0  HOH0        0.2052
     64 O           8.0289    4.4287    2.2115 O.3    22  HOH22      -0.4105
     65 H           8.4976    5.1100    2.7166 H       0  HOH0        0.2052
     66 H           7.3954    4.0611    2.8459 H       0  HOH0        0.2052
     67 O           8.0289    4.4287    5.5555 O.3    23  HOH23      -0.4105
     68 H           8.4976    5.1100    6.0606 H       0  HOH0        0.2052
     69 H           7.3954    4.0611    6.1899 H       0  HOH0        0.2052
     70 O           8.0289    4.4287    8.8995 O.3    24  HOH24      -0.4105
     71 H           8.4976    5.1100    9.4046 H       0  HOH0        0.2052
     72 H           7.3954    4.0611    9.5339 H       0  HOH0        0.2052
     73 O           8.0289    7.7727    2.2115 O.3    25  HOH25      -0.4105
     74 H           8.4976    8.4540    2.7166 H       0  HOH0        0.2052
     75 H           7.3954    7.4051    2.8459 H       0  HOH0        0.2052
     76 O           8.0289    7.7727    5.5555 O.3    26  HOH26      -0.4105
     77 H           8.4976    8.4540    6.0606 H       0  HOH0        0.2052
     78 H           7.3954    7.4051    6.1899 H       0  HOH0        0.2052
     79 O           8.0289    7.7727    8.8995 O.3    27  HOH27      -0.4105
     80 H           8.4976    8.4540    9.4046 H       0  HOH0        0.2052
     81 H           7.3954    7.4051    9.5339 H       0  HOH0        0.2052
@<TRIPOS>BOND
     1     1     2    1
     2     1     3    1
     3     4     5    1
     4     4     6    1
     5     7     8    1
     6     7     9    1
     7    10    11    1
     8    10    12    1
     9    13    14    1
    10    13    15    1
    11    16    17    1
    12    16    18    1
    13    19    20    1
    14    19    21    1
    15    22    23    1
    16    22    24    1
    17    25    26    1
    18    25    27    1
    19    28    29    1
    20    28    30    1
    21    31    32    1
    22    31    33    1
    23    34    35    1
    24    34    36    1
    25    37    38    1
    26    37    39    1
    27    40    41    1
    28    40    42    1
    29    43    44    1
    30    43    45    1
    31    46    47    1
    32    46    48    1
    33    49    50    1
    34    49    51    1
    35    52    53    1
    36    52    54    1
    37    55    56    1
    38    55    57    1
    39    58    59    1
    40    58    60    1
    41    61    62    1
    42    61    63    1
    43    64    65    1
    44    64    66    1
    45    67    68    1
    46    67    69    1
    47    70    71    1
    48    70    72    1
    49    73    74    1
    50    73    75    1
    51    76    77    1
    52    76    78    1
    53    79    80    1
    54    79    81    1
