@<TRIPOS>MOLECULE
*****
 375 250 0 0 0
SMALL
GASTEIGER

@<TRIPOS>ATOM
      1 O           0.0000    0.0000    0.0000 O.3     1  HOH1       -0.4105
      2 H           0.2774    0.8929    0.2544 H       0  HOH0        0.2052
      3 H           0.6068   -0.2383   -0.7169 H       0  HOH0        0.2052
      4 O           0.0000    0.0000    3.3369 O.3     2  HOH2       -0.4105
      5 H           0.2774    0.8929    3.5913 H       0  HOH0        0.2052
      6 H           0.6068   -0.2383    2.6200 H       0  HOH0        0.2052
      7 O           0.0000    0.0000    6.6738 O.3     3  HOH3       -0.4105
      8 H           0.2774    0.8929    6.9282 H       0  HOH0        0.2052
      9 H           0.6068   -0.2383    5.9569 H       0  HOH0        0.2052
     10 O           0.0000    0.0000   10.0107 O.3     4  HOH4       -0.4105
     11 H           0.2774    0.8929   10.2651 H       0  HOH0        0.2052
     12 H           0.6068   -0.2383    9.2938 H       0  HOH0        0.2052
     13 O           0.0713    0.0000   13.2470 O.3     5  HOH5       -0.4105
     14 H          -0.1050    0.8929   13.5795 H       0  HOH0        0.2052
     15 H           0.9179   -0.2383   13.6538 H       0  HOH0        0.2052
     16 O           0.4317    3.6909    0.0000 O.3     6  HOH6       -0.4105
     17 H          -0.3626    4.1841    0.2544 H       0  HOH0        0.2052
     18 H           0.8151    4.2182   -0.7169 H       0  HOH0        0.2052
     19 O           0.1020    3.5394    2.8923 O.3     7  HOH7       -0.4105
     20 H          -0.2161    4.2775    3.4337 H       0  HOH0        0.2052
     21 H           0.9984    3.3764    3.2222 H       0  HOH0        0.2052
     22 O           0.4317    3.7947    6.7376 O.3     8  HOH8       -0.4105
     23 H          -0.3626    4.1650    6.3244 H       0  HOH0        0.2052
     24 H           0.8151    3.2336    6.0469 H       0  HOH0        0.2052
     25 O           0.1515    3.5650    9.9009 O.3     9  HOH9       -0.4105
     26 H           1.0416    3.6899    9.5390 H       0  HOH0        0.2052
     27 H          -0.3089    4.3884    9.6797 H       0  HOH0        0.2052
     28 O           0.4317    3.5409   13.3476 O.3    10  HOH10      -0.4105
     29 H          -0.3626    4.0341   13.6020 H       0  HOH0        0.2052
     30 H           0.8151    4.0682   12.6307 H       0  HOH0        0.2052
     31 O           0.0300    7.6246   -0.2881 O.3    11  HOH11      -0.4105
     32 H          -0.4161    6.8505    0.0871 H       0  HOH0        0.2052
     33 H           0.8203    7.2569   -0.7114 H       0  HOH0        0.2052
     34 O           0.4317    7.3465    3.4032 O.3    12  HOH12      -0.4105
     35 H          -0.3626    7.8220    3.1171 H       0  HOH0        0.2052
     36 H           0.8151    7.0135    2.5779 H       0  HOH0        0.2052
     37 O           0.4317    7.0092    6.0792 O.3    13  HOH13      -0.4105
     38 H          -0.3626    6.8871    6.6206 H       0  HOH0        0.2052
     39 H           0.8151    7.8357    6.4091 H       0  HOH0        0.2052
     40 O           0.4317    7.3076    9.9245 O.3    14  HOH14      -0.4105
     41 H          -0.3626    7.6779    9.5113 H       0  HOH0        0.2052
     42 H           0.8151    6.7465    9.2338 H       0  HOH0        0.2052
     43 O           0.4317    6.9038   13.3476 O.3    15  HOH15      -0.4105
     44 H          -0.3626    7.3970   13.6020 H       0  HOH0        0.2052
     45 H           0.8151    7.4311   12.6307 H       0  HOH0        0.2052
     46 O           0.0300   10.5667    0.0172 O.3    16  HOH16      -0.4105
     47 H          -0.4161   11.0599   -0.6875 H       0  HOH0        0.2052
     48 H           0.8203   11.0940    0.2078 H       0  HOH0        0.2052
     49 O           0.3094   10.9872    3.3369 O.3    17  HOH17      -0.4105
     50 H           1.2434   10.9435    3.5913 H       0  HOH0        0.2052
     51 H           0.2315   10.3400    2.6200 H       0  HOH0        0.2052
     52 O           0.0094   10.8372    6.5238 O.3    18  HOH18      -0.4105
     53 H           0.9434   10.7935    6.7782 H       0  HOH0        0.2052
     54 H          -0.0685   10.1900    5.8069 H       0  HOH0        0.2052
     55 O           0.4317   10.5205    9.9246 O.3    19  HOH19      -0.4105
     56 H          -0.3626   10.8908    9.5113 H       0  HOH0        0.2052
     57 H           0.8151    9.9594    9.2338 H       0  HOH0        0.2052
     58 O           0.0000   10.3887   13.3476 O.3    20  HOH20      -0.4105
     59 H           0.2774   11.2816   13.6020 H       0  HOH0        0.2052
     60 H           0.6068   10.1504   12.6307 H       0  HOH0        0.2052
     61 O           0.0000   14.0516    0.0000 O.3    21  HOH21      -0.4105
     62 H           0.2774   14.9445    0.2544 H       0  HOH0        0.2052
     63 H           0.6068   13.8133   -0.7169 H       0  HOH0        0.2052
     64 O           0.4238   14.4761    3.3771 O.3    22  HOH22      -0.4105
     65 H          -0.4144   14.8006    3.0152 H       0  HOH0        0.2052
     66 H           0.4247   13.5327    3.1559 H       0  HOH0        0.2052
     67 O           0.4238   14.4761    6.5640 O.3    23  HOH23      -0.4105
     68 H          -0.4144   14.8006    6.2021 H       0  HOH0        0.2052
     69 H           0.4247   13.5327    6.3428 H       0  HOH0        0.2052
     70 O           0.4238   14.4761    9.9009 O.3    24  HOH24      -0.4105
     71 H          -0.4144   14.8006    9.5390 H       0  HOH0        0.2052
     72 H           0.4247   13.5327    9.6797 H       0  HOH0        0.2052
     73 O           0.0000   14.0516   13.3476 O.3    25  HOH25      -0.4105
     74 H           0.2774   14.9445   13.6020 H       0  HOH0        0.2052
     75 H           0.6068   13.8133   12.6307 H       0  HOH0        0.2052
     76 O           3.3768    0.0000    0.0000 O.3    26  HOH26      -0.4105
     77 H           3.6542    0.8929    0.2544 H       0  HOH0        0.2052
     78 H           3.9836   -0.2383   -0.7169 H       0  HOH0        0.2052
     79 O           3.2268    0.0000    3.3369 O.3    27  HOH27      -0.4105
     80 H           3.5042    0.8929    3.5913 H       0  HOH0        0.2052
     81 H           3.8336   -0.2383    2.6200 H       0  HOH0        0.2052
     82 O           3.3768    0.0000    6.6738 O.3    28  HOH28      -0.4105
     83 H           3.6542    0.8929    6.9282 H       0  HOH0        0.2052
     84 H           3.9836   -0.2383    5.9569 H       0  HOH0        0.2052
     85 O           3.3768    0.0000    9.8607 O.3    29  HOH29      -0.4105
     86 H           3.6542    0.8929   10.1151 H       0  HOH0        0.2052
     87 H           3.9836   -0.2383    9.1438 H       0  HOH0        0.2052
     88 O           3.3768    0.0000   13.3476 O.3    30  HOH30      -0.4105
     89 H           3.6542    0.8929   13.6020 H       0  HOH0        0.2052
     90 H           3.9836   -0.2383   12.6307 H       0  HOH0        0.2052
     91 O           3.3768    3.5129    0.0000 O.3    31  HOH31      -0.4105
     92 H           3.6542    4.4058    0.2544 H       0  HOH0        0.2052
     93 H           3.9836    3.2746   -0.7169 H       0  HOH0        0.2052
     94 O           3.5981    3.8129    2.9363 O.3    32  HOH32      -0.4105
     95 H           3.4218    4.7058    3.2688 H       0  HOH0        0.2052
     96 H           4.4447    3.5746    3.3431 H       0  HOH0        0.2052
     97 O           3.5268    3.5129    6.6738 O.3    33  HOH33      -0.4105
     98 H           3.8042    4.4058    6.9282 H       0  HOH0        0.2052
     99 H           4.1336    3.2746    5.9569 H       0  HOH0        0.2052
    100 O           3.6768    3.3629    9.8607 O.3    34  HOH34      -0.4105
    101 H           3.9542    4.2558   10.1151 H       0  HOH0        0.2052
    102 H           4.2836    3.1246    9.1438 H       0  HOH0        0.2052
    103 O           3.3768    3.5129   13.3476 O.3    35  HOH35      -0.4105
    104 H           3.6542    4.4058   13.6020 H       0  HOH0        0.2052
    105 H           3.9836    3.2746   12.6307 H       0  HOH0        0.2052
    106 O           4.1966    6.7255   -0.2838 O.3    36  HOH36      -0.4105
    107 H           4.5126    7.1481    0.5289 H       0  HOH0        0.2052
    108 H           3.6555    7.4085   -0.7076 H       0  HOH0        0.2052
    109 O           3.1779    8.8083    2.8521 O.3    37  HOH37      -0.4105
    110 H           3.3100    7.9668    3.3139 H       0  HOH0        0.2052
    111 H           2.7267    8.5570    2.0322 H       0  HOH0        0.2052
    112 O           3.2268    7.0258    6.6738 O.3    38  HOH38      -0.4105
    113 H           3.5042    7.9187    6.9282 H       0  HOH0        0.2052
    114 H           3.8336    6.7875    5.9569 H       0  HOH0        0.2052
    115 O           3.5268    6.8758    9.8607 O.3    39  HOH39      -0.4105
    116 H           3.8042    7.7687   10.1151 H       0  HOH0        0.2052
    117 H           4.1336    6.6375    9.1438 H       0  HOH0        0.2052
    118 O           3.5268    7.0258   13.3476 O.3    40  HOH40      -0.4105
    119 H           3.8042    7.9187   13.6020 H       0  HOH0        0.2052
    120 H           4.1336    6.7875   12.6307 H       0  HOH0        0.2052
    121 O           3.3768   10.2387    0.0000 O.3    41  HOH41      -0.4105
    122 H           3.6542   11.1316    0.2544 H       0  HOH0        0.2052
    123 H           3.9836   10.0004   -0.7169 H       0  HOH0        0.2052
    124 O           4.7085   10.7167    3.0369 O.3    42  HOH42      -0.4105
    125 H           3.9142   11.2099    3.2913 H       0  HOH0        0.2052
    126 H           5.0919   11.2440    2.3200 H       0  HOH0        0.2052
    127 O           4.0431   10.6246    5.9285 O.3    43  HOH43      -0.4105
    128 H           3.6477   11.1552    6.6364 H       0  HOH0        0.2052
    129 H           3.3238   10.0409    5.6439 H       0  HOH0        0.2052
    130 O           3.2362   11.1372    9.8607 O.3    44  HOH44      -0.4105
    131 H           4.1702   11.0935   10.1151 H       0  HOH0        0.2052
    132 H           3.1583   10.4900    9.1438 H       0  HOH0        0.2052
    133 O           3.2268   10.5387   13.3476 O.3    45  HOH45      -0.4105
    134 H           3.5042   11.4316   13.6020 H       0  HOH0        0.2052
    135 H           3.8336   10.3004   12.6307 H       0  HOH0        0.2052
    136 O           3.2268   14.0516    0.0000 O.3    46  HOH46      -0.4105
    137 H           3.5042   14.9445    0.2544 H       0  HOH0        0.2052
    138 H           3.8336   13.8133   -0.7169 H       0  HOH0        0.2052
    139 O           3.3768   14.0516    3.3369 O.3    47  HOH47      -0.4105
    140 H           3.6542   14.9445    3.5913 H       0  HOH0        0.2052
    141 H           3.9836   13.8133    2.6200 H       0  HOH0        0.2052
    142 O           3.3768   14.0516    6.6738 O.3    48  HOH48      -0.4105
    143 H           3.6542   14.9445    6.9282 H       0  HOH0        0.2052
    144 H           3.9836   13.8133    5.9569 H       0  HOH0        0.2052
    145 O           3.3768   13.9016    9.8607 O.3    49  HOH49      -0.4105
    146 H           3.6542   14.7945   10.1151 H       0  HOH0        0.2052
    147 H           3.9836   13.6633    9.1438 H       0  HOH0        0.2052
    148 O           3.3768   14.0516   13.3476 O.3    50  HOH50      -0.4105
    149 H           3.6542   14.9445   13.6020 H       0  HOH0        0.2052
    150 H           3.9836   13.8133   12.6307 H       0  HOH0        0.2052
    151 O           6.6036    0.0000    0.0000 O.3    51  HOH51      -0.4105
    152 H           6.8810    0.8929    0.2544 H       0  HOH0        0.2052
    153 H           7.2104   -0.2383   -0.7169 H       0  HOH0        0.2052
    154 O           6.4536    0.0000    3.4869 O.3    52  HOH52      -0.4105
    155 H           6.7310    0.8929    3.7413 H       0  HOH0        0.2052
    156 H           7.0604   -0.2383    2.7700 H       0  HOH0        0.2052
    157 O           6.6036    0.0000    6.6738 O.3    53  HOH53      -0.4105
    158 H           6.8810    0.8929    6.9282 H       0  HOH0        0.2052
    159 H           7.2104   -0.2383    5.9569 H       0  HOH0        0.2052
    160 O           6.6036    0.0000    9.8607 O.3    54  HOH54      -0.4105
    161 H           6.8810    0.8929   10.1151 H       0  HOH0        0.2052
    162 H           7.2104   -0.2383    9.1438 H       0  HOH0        0.2052
    163 O           6.4536    0.0000   13.3476 O.3    55  HOH55      -0.4105
    164 H           6.7310    0.8929   13.6020 H       0  HOH0        0.2052
    165 H           7.0604   -0.2383   12.6307 H       0  HOH0        0.2052
    166 O           6.4536    3.5129    0.0000 O.3    56  HOH56      -0.4105
    167 H           6.7310    4.4058    0.2544 H       0  HOH0        0.2052
    168 H           7.0604    3.2746   -0.7169 H       0  HOH0        0.2052
    169 O           7.0536    3.0629    2.7369 O.3    57  HOH57      -0.4105
    170 H           7.3310    3.9558    2.9913 H       0  HOH0        0.2052
    171 H           7.6604    2.8246    2.0200 H       0  HOH0        0.2052
    172 O           6.7536    3.5129    6.2238 O.3    58  HOH58      -0.4105
    173 H           7.0310    4.4058    6.4782 H       0  HOH0        0.2052
    174 H           7.3604    3.2746    5.5069 H       0  HOH0        0.2052
    175 O           6.7536    3.3629    9.8607 O.3    59  HOH59      -0.4105
    176 H           7.0310    4.2558   10.1151 H       0  HOH0        0.2052
    177 H           7.3604    3.1246    9.1438 H       0  HOH0        0.2052
    178 O           6.4536    3.8129   13.3476 O.3    60  HOH60      -0.4105
    179 H           6.7310    4.7058   13.6020 H       0  HOH0        0.2052
    180 H           7.0604    3.5746   12.6307 H       0  HOH0        0.2052
    181 O           7.0536    6.7258    0.0000 O.3    61  HOH61      -0.4105
    182 H           7.3310    7.6187    0.2544 H       0  HOH0        0.2052
    183 H           7.6604    6.4875   -0.7169 H       0  HOH0        0.2052
    184 O           5.5590    6.6735    2.8271 O.3    62  HOH62      -0.4105
    185 H           5.5224    6.3292    3.7321 H       0  HOH0        0.2052
    186 H           6.4636    6.4792    2.5391 H       0  HOH0        0.2052
    187 O           7.0353    7.2038    5.9238 O.3    63  HOH63      -0.4105
    188 H           6.2410    7.6970    6.1782 H       0  HOH0        0.2052
    189 H           7.4187    7.7311    5.2069 H       0  HOH0        0.2052
    190 O           6.7536    6.4258    9.1107 O.3    64  HOH64      -0.4105
    191 H           7.0310    7.3187    9.3651 H       0  HOH0        0.2052
    192 H           7.3604    6.1875    8.3938 H       0  HOH0        0.2052
    193 O           7.0563    7.5658   12.2711 O.3    65  HOH65      -0.4105
    194 H           6.8036    7.4495   13.1992 H       0  HOH0        0.2052
    195 H           6.8352    6.7167   11.8600 H       0  HOH0        0.2052
    196 O           6.6036   10.2387    0.0000 O.3    66  HOH66      -0.4105
    197 H           6.8810   11.1316    0.2544 H       0  HOH0        0.2052
    198 H           7.2104   10.0004   -0.7169 H       0  HOH0        0.2052
    199 O           7.0536    9.4887    3.0369 O.3    67  HOH67      -0.4105
    200 H           7.3310   10.3816    3.2913 H       0  HOH0        0.2052
    201 H           7.6604    9.2504    2.3200 H       0  HOH0        0.2052
    202 O           6.7536   10.6887    6.9738 O.3    68  HOH68      -0.4105
    203 H           7.0310   11.5816    7.2282 H       0  HOH0        0.2052
    204 H           7.3604   10.4504    6.2569 H       0  HOH0        0.2052
    205 O           6.8234    9.9387   10.1806 O.3    69  HOH69      -0.4105
    206 H           7.1394   10.8316    9.9761 H       0  HOH0        0.2052
    207 H           6.2823    9.7004    9.4129 H       0  HOH0        0.2052
    208 O           7.0353   10.4167   13.3476 O.3    70  HOH70      -0.4105
    209 H           6.2410   10.9099   13.6020 H       0  HOH0        0.2052
    210 H           7.4187   10.9440   12.6307 H       0  HOH0        0.2052
    211 O           6.4536   14.0516    0.0000 O.3    71  HOH71      -0.4105
    212 H           6.7310   14.9445    0.2544 H       0  HOH0        0.2052
    213 H           7.0604   13.8133   -0.7169 H       0  HOH0        0.2052
    214 O           6.6036   13.4516    3.0369 O.3    72  HOH72      -0.4105
    215 H           6.8810   14.3445    3.2913 H       0  HOH0        0.2052
    216 H           7.2104   13.2133    2.3200 H       0  HOH0        0.2052
    217 O           6.6036   14.0516    6.5238 O.3    73  HOH73      -0.4105
    218 H           6.8810   14.9445    6.7782 H       0  HOH0        0.2052
    219 H           7.2104   13.8133    5.8069 H       0  HOH0        0.2052
    220 O           6.6036   13.9016    9.8607 O.3    74  HOH74      -0.4105
    221 H           6.8810   14.7945   10.1151 H       0  HOH0        0.2052
    222 H           7.2104   13.6633    9.1438 H       0  HOH0        0.2052
    223 O           6.6036   14.0516   13.3476 O.3    75  HOH75      -0.4105
    224 H           6.8810   14.9445   13.6020 H       0  HOH0        0.2052
    225 H           7.2104   13.8133   12.6307 H       0  HOH0        0.2052
    226 O           9.8304    0.0000    0.0000 O.3    76  HOH76      -0.4105
    227 H          10.1078    0.8929    0.2544 H       0  HOH0        0.2052
    228 H          10.4372   -0.2383   -0.7169 H       0  HOH0        0.2052
    229 O           9.8304    0.0000    3.3369 O.3    77  HOH77      -0.4105
    230 H          10.1078    0.8929    3.5913 H       0  HOH0        0.2052
    231 H          10.4372   -0.2383    2.6200 H       0  HOH0        0.2052
    232 O           9.8304    0.0000    6.6738 O.3    78  HOH78      -0.4105
    233 H          10.1078    0.8929    6.9282 H       0  HOH0        0.2052
    234 H          10.4372   -0.2383    5.9569 H       0  HOH0        0.2052
    235 O           9.8304    0.0000    9.8607 O.3    79  HOH79      -0.4105
    236 H          10.1078    0.8929   10.1151 H       0  HOH0        0.2052
    237 H          10.4372   -0.2383    9.1438 H       0  HOH0        0.2052
    238 O           9.6804    0.0000   13.3476 O.3    80  HOH80      -0.4105
    239 H           9.9578    0.8929   13.6020 H       0  HOH0        0.2052
    240 H          10.2872   -0.2383   12.6307 H       0  HOH0        0.2052
    241 O           9.6804    3.5129    0.0000 O.3    81  HOH81      -0.4105
    242 H           9.9578    4.4058    0.2544 H       0  HOH0        0.2052
    243 H          10.2872    3.2746   -0.7169 H       0  HOH0        0.2052
    244 O           9.8304    3.6629    3.4869 O.3    82  HOH82      -0.4105
    245 H          10.1078    4.5558    3.7413 H       0  HOH0        0.2052
    246 H          10.4372    3.4246    2.7700 H       0  HOH0        0.2052
    247 O           9.6804    3.3629    6.6738 O.3    83  HOH83      -0.4105
    248 H           9.9578    4.2558    6.9282 H       0  HOH0        0.2052
    249 H          10.2872    3.1246    5.9569 H       0  HOH0        0.2052
    250 O           9.8304    3.3629    9.8607 O.3    84  HOH84      -0.4105
    251 H          10.1078    4.2558   10.1151 H       0  HOH0        0.2052
    252 H          10.4372    3.1246    9.1438 H       0  HOH0        0.2052
    253 O           9.6804    3.3629   13.1976 O.3    85  HOH85      -0.4105
    254 H           9.9578    4.2558   13.4520 H       0  HOH0        0.2052
    255 H          10.2872    3.1246   12.4807 H       0  HOH0        0.2052
    256 O           9.9804    6.8758    0.0000 O.3    86  HOH86      -0.4105
    257 H          10.2578    7.7687    0.2544 H       0  HOH0        0.2052
    258 H          10.5872    6.6375   -0.7169 H       0  HOH0        0.2052
    259 O           9.5398    7.4743    3.1869 O.3    87  HOH87      -0.4105
    260 H          10.4738    7.4306    3.4413 H       0  HOH0        0.2052
    261 H           9.4619    6.8271    2.4700 H       0  HOH0        0.2052
    262 O           9.8304    6.5758    6.3738 O.3    88  HOH88      -0.4105
    263 H          10.1078    7.4687    6.6282 H       0  HOH0        0.2052
    264 H          10.4372    6.3375    5.6569 H       0  HOH0        0.2052
    265 O           9.8304    6.7258    9.7107 O.3    89  HOH89      -0.4105
    266 H          10.1078    7.6187    9.9651 H       0  HOH0        0.2052
    267 H          10.4372    6.4875    8.9938 H       0  HOH0        0.2052
    268 O           9.5304    6.8758   13.3476 O.3    90  HOH90      -0.4105
    269 H           9.8078    7.7687   13.6020 H       0  HOH0        0.2052
    270 H          10.1372    6.6375   12.6307 H       0  HOH0        0.2052
    271 O           9.8304   10.3887    0.0000 O.3    91  HOH91      -0.4105
    272 H          10.1078   11.2816    0.2544 H       0  HOH0        0.2052
    273 H          10.4372   10.1504   -0.7169 H       0  HOH0        0.2052
    274 O           9.8304   10.5387    3.4869 O.3    92  HOH92      -0.4105
    275 H          10.1078   11.4316    3.7413 H       0  HOH0        0.2052
    276 H          10.4372   10.3004    2.7700 H       0  HOH0        0.2052
    277 O          10.1304    9.9387    6.3738 O.3    93  HOH93      -0.4105
    278 H          10.4078   10.8316    6.6282 H       0  HOH0        0.2052
    279 H          10.7372    9.7004    5.6569 H       0  HOH0        0.2052
    280 O          10.0502   10.0887    9.7306 O.3    94  HOH94      -0.4105
    281 H          10.3662   10.9816    9.5261 H       0  HOH0        0.2052
    282 H           9.5091    9.8504    8.9629 H       0  HOH0        0.2052
    283 O           9.8304   10.5387   13.3476 O.3    95  HOH95      -0.4105
    284 H          10.1078   11.4316   13.6020 H       0  HOH0        0.2052
    285 H          10.4372   10.3004   12.6307 H       0  HOH0        0.2052
    286 O           9.8304   14.0516    0.0000 O.3    96  HOH96      -0.4105
    287 H          10.1078   14.9445    0.2544 H       0  HOH0        0.2052
    288 H          10.4372   13.8133   -0.7169 H       0  HOH0        0.2052
    289 O           9.8304   14.0516    3.3369 O.3    97  HOH97      -0.4105
    290 H          10.1078   14.9445    3.5913 H       0  HOH0        0.2052
    291 H          10.4372   13.8133    2.6200 H       0  HOH0        0.2052
    292 O           9.8304   14.0516    6.6738 O.3    98  HOH98      -0.4105
    293 H          10.1078   14.9445    6.9282 H       0  HOH0        0.2052
    294 H          10.4372   13.8133    5.9569 H       0  HOH0        0.2052
    295 O           9.8304   13.9016    9.8607 O.3    99  HOH99      -0.4105
    296 H          10.1078   14.7945   10.1151 H       0  HOH0        0.2052
    297 H          10.4372   13.6633    9.1438 H       0  HOH0        0.2052
    298 O           9.8304   14.0516   13.3476 O.3   100  HOH100     -0.4105
    299 H          10.1078   14.9445   13.6020 H       0  HOH0        0.2052
    300 H          10.4372   13.8133   12.6307 H       0  HOH0        0.2052
    301 O          12.9072    0.0000    0.1500 O.3   101  HOH101     -0.4105
    302 H          13.1846    0.8929    0.4044 H       0  HOH0        0.2052
    303 H          13.5140   -0.2383   -0.5669 H       0  HOH0        0.2052
    304 O          12.9072    0.0000    3.4869 O.3   102  HOH102     -0.4105
    305 H          13.1846    0.8929    3.7413 H       0  HOH0        0.2052
    306 H          13.5140   -0.2383    2.7700 H       0  HOH0        0.2052
    307 O          12.9072    0.0000    6.6738 O.3   103  HOH103     -0.4105
    308 H          13.1846    0.8929    6.9282 H       0  HOH0        0.2052
    309 H          13.5140   -0.2383    5.9569 H       0  HOH0        0.2052
    310 O          12.9072    0.0000    9.8607 O.3   104  HOH104     -0.4105
    311 H          13.1846    0.8929   10.1151 H       0  HOH0        0.2052
    312 H          13.5140   -0.2383    9.1438 H       0  HOH0        0.2052
    313 O          12.9072    0.0000   13.3476 O.3   105  HOH105     -0.4105
    314 H          13.1846    0.8929   13.6020 H       0  HOH0        0.2052
    315 H          13.5140   -0.2383   12.6307 H       0  HOH0        0.2052
    316 O          12.9072    3.5129    0.0000 O.3   106  HOH106     -0.4105
    317 H          13.1846    4.4058    0.2544 H       0  HOH0        0.2052
    318 H          13.5140    3.2746   -0.7169 H       0  HOH0        0.2052
    319 O          12.9072    3.3629    3.1869 O.3   107  HOH107     -0.4105
    320 H          13.1846    4.2558    3.4413 H       0  HOH0        0.2052
    321 H          13.5140    3.1246    2.4700 H       0  HOH0        0.2052
    322 O          12.9072    3.3629    6.5238 O.3   108  HOH108     -0.4105
    323 H          13.1846    4.2558    6.7782 H       0  HOH0        0.2052
    324 H          13.5140    3.1246    5.8069 H       0  HOH0        0.2052
    325 O          12.9072    3.3629    9.8607 O.3   109  HOH109     -0.4105
    326 H          13.1846    4.2558   10.1151 H       0  HOH0        0.2052
    327 H          13.5140    3.1246    9.1438 H       0  HOH0        0.2052
    328 O          12.9072    3.3629   13.3476 O.3   110  HOH110     -0.4105
    329 H          13.1846    4.2558   13.6020 H       0  HOH0        0.2052
    330 H          13.5140    3.1246   12.6307 H       0  HOH0        0.2052
    331 O          12.9072    7.0258    0.0000 O.3   111  HOH111     -0.4105
    332 H          13.1846    7.9187    0.2544 H       0  HOH0        0.2052
    333 H          13.5140    6.7875   -0.7169 H       0  HOH0        0.2052
    334 O          12.9072    6.8758    3.3369 O.3   112  HOH112     -0.4105
    335 H          13.1846    7.7687    3.5913 H       0  HOH0        0.2052
    336 H          13.5140    6.6375    2.6200 H       0  HOH0        0.2052
    337 O          12.9072    6.8758    6.6738 O.3   113  HOH113     -0.4105
    338 H          13.1846    7.7687    6.9282 H       0  HOH0        0.2052
    339 H          13.5140    6.6375    5.9569 H       0  HOH0        0.2052
    340 O          12.9072    6.8758   10.0107 O.3   114  HOH114     -0.4105
    341 H          13.1846    7.7687   10.2651 H       0  HOH0        0.2052
    342 H          13.5140    6.6375    9.2938 H       0  HOH0        0.2052
    343 O          12.9072    6.8758   13.3476 O.3   115  HOH115     -0.4105
    344 H          13.1846    7.7687   13.6020 H       0  HOH0        0.2052
    345 H          13.5140    6.6375   12.6307 H       0  HOH0        0.2052
    346 O          12.9072   10.5387    0.0000 O.3   116  HOH116     -0.4105
    347 H          13.1846   11.4316    0.2544 H       0  HOH0        0.2052
    348 H          13.5140   10.3004   -0.7169 H       0  HOH0        0.2052
    349 O          12.9072   10.5387    3.3369 O.3   117  HOH117     -0.4105
    350 H          13.1846   11.4316    3.5913 H       0  HOH0        0.2052
    351 H          13.5140   10.3004    2.6200 H       0  HOH0        0.2052
    352 O          12.9072   10.5387    6.6738 O.3   118  HOH118     -0.4105
    353 H          13.1846   11.4316    6.9282 H       0  HOH0        0.2052
    354 H          13.5140   10.3004    5.9569 H       0  HOH0        0.2052
    355 O          12.9072   10.3887    9.8607 O.3   119  HOH119     -0.4105
    356 H          13.1846   11.2816   10.1151 H       0  HOH0        0.2052
    357 H          13.5140   10.1504    9.1438 H       0  HOH0        0.2052
    358 O          12.9072   10.5387   13.3476 O.3   120  HOH120     -0.4105
    359 H          13.1846   11.4316   13.6020 H       0  HOH0        0.2052
    360 H          13.5140   10.3004   12.6307 H       0  HOH0        0.2052
    361 O          12.9072   14.0516    0.0000 O.3   121  HOH121     -0.4105
    362 H          13.1846   14.9445    0.2544 H       0  HOH0        0.2052
    363 H          13.5140   13.8133   -0.7169 H       0  HOH0        0.2052
    364 O          12.9072   14.0516    3.3369 O.3   122  HOH122     -0.4105
    365 H          13.1846   14.9445    3.5913 H       0  HOH0        0.2052
    366 H          13.5140   13.8133    2.6200 H       0  HOH0        0.2052
    367 O          12.9072   14.0516    6.6738 O.3   123  HOH123     -0.4105
    368 H          13.1846   14.9445    6.9282 H       0  HOH0        0.2052
    369 H          13.5140   13.8133    5.9569 H       0  HOH0        0.2052
    370 O          12.9072   14.0516    9.8607 O.3   124  HOH124     -0.4105
    371 H          13.1846   14.9445   10.1151 H       0  HOH0        0.2052
    372 H          13.5140   13.8133    9.1438 H       0  HOH0        0.2052
    373 O          12.9072   14.0516   13.3476 O.3   125  HOH125     -0.4105
    374 H          13.1846   14.9445   13.6020 H       0  HOH0        0.2052
    375 H          13.5140   13.8133   12.6307 H       0  HOH0        0.2052
@<TRIPOS>BOND
     1     1     2    1
     2     1     3    1
     3     4     5    1
     4     4     6    1
     5     7     8    1
     6     7     9    1
     7    10    11    1
     8    10    12    1
     9    13    14    1
    10    13    15    1
    11    16    17    1
    12    16    18    1
    13    19    20    1
    14    19    21    1
    15    22    23    1
    16    22    24    1
    17    25    26    1
    18    25    27    1
    19    28    29    1
    20    28    30    1
    21    31    32    1
    22    31    33    1
    23    34    35    1
    24    34    36    1
    25    37    38    1
    26    37    39    1
    27    40    41    1
    28    40    42    1
    29    43    44    1
    30    43    45    1
    31    46    47    1
    32    46    48    1
    33    49    50    1
    34    49    51    1
    35    52    53    1
    36    52    54    1
    37    55    56    1
    38    55    57    1
    39    58    59    1
    40    58    60    1
    41    61    62    1
    42    61    63    1
    43    64    65    1
    44    64    66    1
    45    67    68    1
    46    67    69    1
    47    70    71    1
    48    70    72    1
    49    73    74    1
    50    73    75    1
    51    76    77    1
    52    76    78    1
    53    79    80    1
    54    79    81    1
    55    82    83    1
    56    82    84    1
    57    85    86    1
    58    85    87    1
    59    88    89    1
    60    88    90    1
    61    91    92    1
    62    91    93    1
    63    94    95    1
    64    94    96    1
    65    97    98    1
    66    97    99    1
    67   100   101    1
    68   100   102    1
    69   103   104    1
    70   103   105    1
    71   106   107    1
    72   106   108    1
    73   109   110    1
    74   109   111    1
    75   112   113    1
    76   112   114    1
    77   115   116    1
    78   115   117    1
    79   118   119    1
    80   118   120    1
    81   121   122    1
    82   121   123    1
    83   124   125    1
    84   124   126    1
    85   127   128    1
    86   127   129    1
    87   130   131    1
    88   130   132    1
    89   133   134    1
    90   133   135    1
    91   136   137    1
    92   136   138    1
    93   139   140    1
    94   139   141    1
    95   142   143    1
    96   142   144    1
    97   145   146    1
    98   145   147    1
    99   148   149    1
   100   148   150    1
   101   151   152    1
   102   151   153    1
   103   154   155    1
   104   154   156    1
   105   157   158    1
   106   157   159    1
   107   160   161    1
   108   160   162    1
   109   163   164    1
   110   163   165    1
   111   166   167    1
   112   166   168    1
   113   169   170    1
   114   169   171    1
   115   172   173    1
   116   172   174    1
   117   175   176    1
   118   175   177    1
   119   178   179    1
   120   178   180    1
   121   181   182    1
   122   181   183    1
   123   184   185    1
   124   184   186    1
   125   187   188    1
   126   187   189    1
   127   190   191    1
   128   190   192    1
   129   193   194    1
   130   193   195    1
   131   196   197    1
   132   196   198    1
   133   199   200    1
   134   199   201    1
   135   202   203    1
   136   202   204    1
   137   205   206    1
   138   205   207    1
   139   208   209    1
   140   208   210    1
   141   211   212    1
   142   211   213    1
   143   214   215    1
   144   214   216    1
   145   217   218    1
   146   217   219    1
   147   220   221    1
   148   220   222    1
   149   223   224    1
   150   223   225    1
   151   226   227    1
   152   226   228    1
   153   229   230    1
   154   229   231    1
   155   232   233    1
   156   232   234    1
   157   235   236    1
   158   235   237    1
   159   238   239    1
   160   238   240    1
   161   241   242    1
   162   241   243    1
   163   244   245    1
   164   244   246    1
   165   247   248    1
   166   247   249    1
   167   250   251    1
   168   250   252    1
   169   253   254    1
   170   253   255    1
   171   256   257    1
   172   256   258    1
   173   259   260    1
   174   259   261    1
   175   262   263    1
   176   262   264    1
   177   265   266    1
   178   265   267    1
   179   268   269    1
   180   268   270    1
   181   271   272    1
   182   271   273    1
   183   274   275    1
   184   274   276    1
   185   277   278    1
   186   277   279    1
   187   280   281    1
   188   280   282    1
   189   283   284    1
   190   283   285    1
   191   286   287    1
   192   286   288    1
   193   289   290    1
   194   289   291    1
   195   292   293    1
   196   292   294    1
   197   295   296    1
   198   295   297    1
   199   298   299    1
   200   298   300    1
   201   301   302    1
   202   301   303    1
   203   304   305    1
   204   304   306    1
   205   307   308    1
   206   307   309    1
   207   310   311    1
   208   310   312    1
   209   313   314    1
   210   313   315    1
   211   316   317    1
   212   316   318    1
   213   319   320    1
   214   319   321    1
   215   322   323    1
   216   322   324    1
   217   325   326    1
   218   325   327    1
   219   328   329    1
   220   328   330    1
   221   331   332    1
   222   331   333    1
   223   334   335    1
   224   334   336    1
   225   337   338    1
   226   337   339    1
   227   340   341    1
   228   340   342    1
   229   343   344    1
   230   343   345    1
   231   346   347    1
   232   346   348    1
   233   349   350    1
   234   349   351    1
   235   352   353    1
   236   352   354    1
   237   355   356    1
   238   355   357    1
   239   358   359    1
   240   358   360    1
   241   361   362    1
   242   361   363    1
   243   364   365    1
   244   364   366    1
   245   367   368    1
   246   367   369    1
   247   370   371    1
   248   370   372    1
   249   373   374    1
   250   373   375    1
