@<TRIPOS>MOLECULE
*****
 800 640 0 0 0
SMALL
GASTEIGER

@<TRIPOS>ATOM
      1 CL          3.0597    1.7500    2.7505 Cl      1  UNL1       -0.0870
      2 CL          1.7500    4.3517    2.7505 Cl      1  UNL1       -0.0870
      3 CL          4.6581    4.1850    2.7504 Cl      1  UNL1       -0.0870
      4 C           3.1558    3.4289    2.1930 C.3     1  UNL1        0.1805
      5 H           3.1558    3.4288    1.1000 H       1  UNL1        0.0806
      6 CL          3.0597    1.7500    7.2510 Cl      2  UNL2       -0.0870
      7 CL          1.7500    4.3517    7.2510 Cl      2  UNL2       -0.0870
      8 CL          4.6581    4.1850    7.2509 Cl      2  UNL2       -0.0870
      9 C           3.1558    3.4289    6.6935 C.3     2  UNL2        0.1805
     10 H           3.1558    3.4288    5.6005 H       2  UNL2        0.0806
     11 CL          3.0597    1.7500   11.7515 Cl      3  UNL3       -0.0870
     12 CL          1.7500    4.3517   11.7515 Cl      3  UNL3       -0.0870
     13 CL          4.6581    4.1850   11.7514 Cl      3  UNL3       -0.0870
     14 C           3.1558    3.4289   11.1940 C.3     3  UNL3        0.1805
     15 H           3.1558    3.4288   10.1010 H       3  UNL3        0.0806
     16 CL          3.0597    1.7500   16.2520 Cl      4  UNL4       -0.0870
     17 CL          1.7500    4.3517   16.2520 Cl      4  UNL4       -0.0870
     18 CL          4.6581    4.1850   16.2519 Cl      4  UNL4       -0.0870
     19 C           3.1558    3.4289   15.6945 C.3     4  UNL4        0.1805
     20 H           3.1558    3.4288   14.6015 H       4  UNL4        0.0806
     21 CL          3.0597    1.7500   20.7525 Cl      5  UNL5       -0.0870
     22 CL          1.7500    4.3517   20.7525 Cl      5  UNL5       -0.0870
     23 CL          4.6581    4.1850   20.7524 Cl      5  UNL5       -0.0870
     24 C           3.1558    3.4289   20.1950 C.3     5  UNL5        0.1805
     25 H           3.1558    3.4288   19.1020 H       5  UNL5        0.0806
     26 CL          3.0597    1.7500   25.2530 Cl      6  UNL6       -0.0870
     27 CL          1.7500    4.3517   25.2530 Cl      6  UNL6       -0.0870
     28 CL          4.6581    4.1850   25.2529 Cl      6  UNL6       -0.0870
     29 C           3.1558    3.4289   24.6955 C.3     6  UNL6        0.1805
     30 H           3.1558    3.4288   23.6025 H       6  UNL6        0.0806
     31 CL          3.0597    1.7500   29.7535 Cl      7  UNL7       -0.0870
     32 CL          1.7500    4.3517   29.7535 Cl      7  UNL7       -0.0870
     33 CL          4.6581    4.1850   29.7534 Cl      7  UNL7       -0.0870
     34 C           3.1558    3.4289   29.1960 C.3     7  UNL7        0.1805
     35 H           3.1558    3.4288   28.1030 H       7  UNL7        0.0806
     36 CL          3.0597    1.7500   34.2540 Cl      8  UNL8       -0.0870
     37 CL          1.7500    4.3517   34.2540 Cl      8  UNL8       -0.0870
     38 CL          4.6581    4.1850   34.2539 Cl      8  UNL8       -0.0870
     39 C           3.1558    3.4289   33.6965 C.3     8  UNL8        0.1805
     40 H           3.1558    3.4288   32.6035 H       8  UNL8        0.0806
     41 CL          3.0597    7.8517    2.7505 Cl      9  UNL9       -0.0870
     42 CL          1.7500   10.4534    2.7505 Cl      9  UNL9       -0.0870
     43 CL          4.6581   10.2867    2.7504 Cl      9  UNL9       -0.0870
     44 C           3.1558    9.5306    2.1930 C.3     9  UNL9        0.1805
     45 H           3.1558    9.5305    1.1000 H       9  UNL9        0.0806
     46 CL          3.0597    7.8517    7.2510 Cl     10  UNL10      -0.0870
     47 CL          1.7500   10.4534    7.2510 Cl     10  UNL10      -0.0870
     48 CL          4.6581   10.2867    7.2509 Cl     10  UNL10      -0.0870
     49 C           3.1558    9.5306    6.6935 C.3    10  UNL10       0.1805
     50 H           3.1558    9.5305    5.6005 H      10  UNL10       0.0806
     51 CL          3.0597    7.8517   11.7515 Cl     11  UNL11      -0.0870
     52 CL          1.7500   10.4534   11.7515 Cl     11  UNL11      -0.0870
     53 CL          4.6581   10.2867   11.7514 Cl     11  UNL11      -0.0870
     54 C           3.1558    9.5306   11.1940 C.3    11  UNL11       0.1805
     55 H           3.1558    9.5305   10.1010 H      11  UNL11       0.0806
     56 CL          3.0597    7.8517   16.2520 Cl     12  UNL12      -0.0870
     57 CL          1.7500   10.4534   16.2520 Cl     12  UNL12      -0.0870
     58 CL          4.6581   10.2867   16.2519 Cl     12  UNL12      -0.0870
     59 C           3.1558    9.5306   15.6945 C.3    12  UNL12       0.1805
     60 H           3.1558    9.5305   14.6015 H      12  UNL12       0.0806
     61 CL          3.0597    7.8517   20.7525 Cl     13  UNL13      -0.0870
     62 CL          1.7500   10.4534   20.7525 Cl     13  UNL13      -0.0870
     63 CL          4.6581   10.2867   20.7524 Cl     13  UNL13      -0.0870
     64 C           3.1558    9.5306   20.1950 C.3    13  UNL13       0.1805
     65 H           3.1558    9.5305   19.1020 H      13  UNL13       0.0806
     66 CL          3.0597    7.8517   25.2530 Cl     14  UNL14      -0.0870
     67 CL          1.7500   10.4534   25.2530 Cl     14  UNL14      -0.0870
     68 CL          4.6581   10.2867   25.2529 Cl     14  UNL14      -0.0870
     69 C           3.1558    9.5306   24.6955 C.3    14  UNL14       0.1805
     70 H           3.1558    9.5305   23.6025 H      14  UNL14       0.0806
     71 CL          3.0597    7.8517   29.7535 Cl     15  UNL15      -0.0870
     72 CL          1.7500   10.4534   29.7535 Cl     15  UNL15      -0.0870
     73 CL          4.6581   10.2867   29.7534 Cl     15  UNL15      -0.0870
     74 C           3.1558    9.5306   29.1960 C.3    15  UNL15       0.1805
     75 H           3.1558    9.5305   28.1030 H      15  UNL15       0.0806
     76 CL          3.0597    7.8517   34.2540 Cl     16  UNL16      -0.0870
     77 CL          1.7500   10.4534   34.2540 Cl     16  UNL16      -0.0870
     78 CL          4.6581   10.2867   34.2539 Cl     16  UNL16      -0.0870
     79 C           3.1558    9.5306   33.6965 C.3    16  UNL16       0.1805
     80 H           3.1558    9.5305   32.6035 H      16  UNL16       0.0806
     81 CL          3.0597   13.9534    2.7505 Cl     17  UNL17      -0.0870
     82 CL          1.7500   16.5551    2.7505 Cl     17  UNL17      -0.0870
     83 CL          4.6581   16.3884    2.7504 Cl     17  UNL17      -0.0870
     84 C           3.1558   15.6323    2.1930 C.3    17  UNL17       0.1805
     85 H           3.1558   15.6322    1.1000 H      17  UNL17       0.0806
     86 CL          3.0597   13.9534    7.2510 Cl     18  UNL18      -0.0870
     87 CL          1.7500   16.5551    7.2510 Cl     18  UNL18      -0.0870
     88 CL          4.6581   16.3884    7.2509 Cl     18  UNL18      -0.0870
     89 C           3.1558   15.6323    6.6935 C.3    18  UNL18       0.1805
     90 H           3.1558   15.6322    5.6005 H      18  UNL18       0.0806
     91 CL          3.0597   13.9534   11.7515 Cl     19  UNL19      -0.0870
     92 CL          1.7500   16.5551   11.7515 Cl     19  UNL19      -0.0870
     93 CL          4.6581   16.3884   11.7514 Cl     19  UNL19      -0.0870
     94 C           3.1558   15.6323   11.1940 C.3    19  UNL19       0.1805
     95 H           3.1558   15.6322   10.1010 H      19  UNL19       0.0806
     96 CL          3.0597   13.9534   16.2520 Cl     20  UNL20      -0.0870
     97 CL          1.7500   16.5551   16.2520 Cl     20  UNL20      -0.0870
     98 CL          4.6581   16.3884   16.2519 Cl     20  UNL20      -0.0870
     99 C           3.1558   15.6323   15.6945 C.3    20  UNL20       0.1805
    100 H           3.1558   15.6322   14.6015 H      20  UNL20       0.0806
    101 CL          3.0597   13.9534   20.7525 Cl     21  UNL21      -0.0870
    102 CL          1.7500   16.5551   20.7525 Cl     21  UNL21      -0.0870
    103 CL          4.6581   16.3884   20.7524 Cl     21  UNL21      -0.0870
    104 C           3.1558   15.6323   20.1950 C.3    21  UNL21       0.1805
    105 H           3.1558   15.6322   19.1020 H      21  UNL21       0.0806
    106 CL          3.0597   13.9534   25.2530 Cl     22  UNL22      -0.0870
    107 CL          1.7500   16.5551   25.2530 Cl     22  UNL22      -0.0870
    108 CL          4.6581   16.3884   25.2529 Cl     22  UNL22      -0.0870
    109 C           3.1558   15.6323   24.6955 C.3    22  UNL22       0.1805
    110 H           3.1558   15.6322   23.6025 H      22  UNL22       0.0806
    111 CL          3.0597   13.9534   29.7535 Cl     23  UNL23      -0.0870
    112 CL          1.7500   16.5551   29.7535 Cl     23  UNL23      -0.0870
    113 CL          4.6581   16.3884   29.7534 Cl     23  UNL23      -0.0870
    114 C           3.1558   15.6323   29.1960 C.3    23  UNL23       0.1805
    115 H           3.1558   15.6322   28.1030 H      23  UNL23       0.0806
    116 CL          3.0597   13.9534   34.2540 Cl     24  UNL24      -0.0870
    117 CL          1.7500   16.5551   34.2540 Cl     24  UNL24      -0.0870
    118 CL          4.6581   16.3884   34.2539 Cl     24  UNL24      -0.0870
    119 C           3.1558   15.6323   33.6965 C.3    24  UNL24       0.1805
    120 H           3.1558   15.6322   32.6035 H      24  UNL24       0.0806
    121 CL          3.0597   20.0551    2.7505 Cl     25  UNL25      -0.0870
    122 CL          1.7500   22.6568    2.7505 Cl     25  UNL25      -0.0870
    123 CL          4.6581   22.4901    2.7504 Cl     25  UNL25      -0.0870
    124 C           3.1558   21.7340    2.1930 C.3    25  UNL25       0.1805
    125 H           3.1558   21.7339    1.1000 H      25  UNL25       0.0806
    126 CL          3.0597   20.0551    7.2510 Cl     26  UNL26      -0.0870
    127 CL          1.7500   22.6568    7.2510 Cl     26  UNL26      -0.0870
    128 CL          4.6581   22.4901    7.2509 Cl     26  UNL26      -0.0870
    129 C           3.1558   21.7340    6.6935 C.3    26  UNL26       0.1805
    130 H           3.1558   21.7339    5.6005 H      26  UNL26       0.0806
    131 CL          3.0597   20.0551   11.7515 Cl     27  UNL27      -0.0870
    132 CL          1.7500   22.6568   11.7515 Cl     27  UNL27      -0.0870
    133 CL          4.6581   22.4901   11.7514 Cl     27  UNL27      -0.0870
    134 C           3.1558   21.7340   11.1940 C.3    27  UNL27       0.1805
    135 H           3.1558   21.7339   10.1010 H      27  UNL27       0.0806
    136 CL          3.0597   20.0551   16.2520 Cl     28  UNL28      -0.0870
    137 CL          1.7500   22.6568   16.2520 Cl     28  UNL28      -0.0870
    138 CL          4.6581   22.4901   16.2519 Cl     28  UNL28      -0.0870
    139 C           3.1558   21.7340   15.6945 C.3    28  UNL28       0.1805
    140 H           3.1558   21.7339   14.6015 H      28  UNL28       0.0806
    141 CL          3.0597   20.0551   20.7525 Cl     28  UNL28      -0.0870
    142 CL          1.7500   22.6568   20.7525 Cl     28  UNL28      -0.0870
    143 CL          4.6581   22.4901   20.7524 Cl     28  UNL28      -0.0870
    144 C           3.1558   21.7340   20.1950 C.3    28  UNL28       0.1805
    145 H           3.1558   21.7339   19.1020 H      28  UNL28       0.0806
    146 CL          3.0597   20.0551   25.2530 Cl     28  UNL28      -0.0870
    147 CL          1.7500   22.6568   25.2530 Cl     28  UNL28      -0.0870
    148 CL          4.6581   22.4901   25.2529 Cl     28  UNL28      -0.0870
    149 C           3.1558   21.7340   24.6955 C.3    28  UNL28       0.1805
    150 H           3.1558   21.7339   23.6025 H      28  UNL28       0.0806
    151 CL          3.0597   20.0551   29.7535 Cl     28  UNL28      -0.0870
    152 CL          1.7500   22.6568   29.7535 Cl     28  UNL28      -0.0870
    153 CL          4.6581   22.4901   29.7534 Cl     28  UNL28      -0.0870
    154 C           3.1558   21.7340   29.1960 C.3    28  UNL28       0.1805
    155 H           3.1558   21.7339   28.1030 H      28  UNL28       0.0806
    156 CL          3.0597   20.0551   34.2540 Cl     28  UNL28      -0.0870
    157 CL          1.7500   22.6568   34.2540 Cl     28  UNL28      -0.0870
    158 CL          4.6581   22.4901   34.2539 Cl     28  UNL28      -0.0870
    159 C           3.1558   21.7340   33.6965 C.3    28  UNL28       0.1805
    160 H           3.1558   21.7339   32.6035 H      28  UNL28       0.0806
    161 CL          3.0597   26.1568    2.7505 Cl     28  UNL28      -0.0870
    162 CL          1.7500   28.7585    2.7505 Cl     28  UNL28      -0.0870
    163 CL          4.6581   28.5918    2.7504 Cl     28  UNL28      -0.0870
    164 C           3.1558   27.8357    2.1930 C.3    28  UNL28       0.1805
    165 H           3.1558   27.8356    1.1000 H      28  UNL28       0.0806
    166 CL          3.0597   26.1568    7.2510 Cl     28  UNL28      -0.0870
    167 CL          1.7500   28.7585    7.2510 Cl     28  UNL28      -0.0870
    168 CL          4.6581   28.5918    7.2509 Cl     28  UNL28      -0.0870
    169 C           3.1558   27.8357    6.6935 C.3    28  UNL28       0.1805
    170 H           3.1558   27.8356    5.6005 H      28  UNL28       0.0806
    171 CL          3.0597   26.1568   11.7515 Cl     28  UNL28      -0.0870
    172 CL          1.7500   28.7585   11.7515 Cl     28  UNL28      -0.0870
    173 CL          4.6581   28.5918   11.7514 Cl     28  UNL28      -0.0870
    174 C           3.1558   27.8357   11.1940 C.3    28  UNL28       0.1805
    175 H           3.1558   27.8356   10.1010 H      28  UNL28       0.0806
    176 CL          3.0597   26.1568   16.2520 Cl     28  UNL28      -0.0870
    177 CL          1.7500   28.7585   16.2520 Cl     28  UNL28      -0.0870
    178 CL          4.6581   28.5918   16.2519 Cl     28  UNL28      -0.0870
    179 C           3.1558   27.8357   15.6945 C.3    28  UNL28       0.1805
    180 H           3.1558   27.8356   14.6015 H      28  UNL28       0.0806
    181 CL          3.0597   26.1568   20.7525 Cl     28  UNL28      -0.0870
    182 CL          1.7500   28.7585   20.7525 Cl     28  UNL28      -0.0870
    183 CL          4.6581   28.5918   20.7524 Cl     28  UNL28      -0.0870
    184 C           3.1558   27.8357   20.1950 C.3    28  UNL28       0.1805
    185 H           3.1558   27.8356   19.1020 H      28  UNL28       0.0806
    186 CL          3.0597   26.1568   25.2530 Cl     28  UNL28      -0.0870
    187 CL          1.7500   28.7585   25.2530 Cl     28  UNL28      -0.0870
    188 CL          4.6581   28.5918   25.2529 Cl     28  UNL28      -0.0870
    189 C           3.1558   27.8357   24.6955 C.3    28  UNL28       0.1805
    190 H           3.1558   27.8356   23.6025 H      28  UNL28       0.0806
    191 CL          3.0597   26.1568   29.7535 Cl     28  UNL28      -0.0870
    192 CL          1.7500   28.7585   29.7535 Cl     28  UNL28      -0.0870
    193 CL          4.6581   28.5918   29.7534 Cl     28  UNL28      -0.0870
    194 C           3.1558   27.8357   29.1960 C.3    28  UNL28       0.1805
    195 H           3.1558   27.8356   28.1030 H      28  UNL28       0.0806
    196 CL          3.0597   26.1568   34.2540 Cl     28  UNL28      -0.0870
    197 CL          1.7500   28.7585   34.2540 Cl     28  UNL28      -0.0870
    198 CL          4.6581   28.5918   34.2539 Cl     28  UNL28      -0.0870
    199 C           3.1558   27.8357   33.6965 C.3    28  UNL28       0.1805
    200 H           3.1558   27.8356   32.6035 H      28  UNL28       0.0806
    201 CL          9.4678    1.7500    2.7505 Cl     28  UNL28      -0.0870
    202 CL          8.1581    4.3517    2.7505 Cl     28  UNL28      -0.0870
    203 CL         11.0662    4.1850    2.7504 Cl     28  UNL28      -0.0870
    204 C           9.5639    3.4289    2.1930 C.3    28  UNL28       0.1805
    205 H           9.5639    3.4288    1.1000 H      28  UNL28       0.0806
    206 CL          9.4678    1.7500    7.2510 Cl     28  UNL28      -0.0870
    207 CL          8.1581    4.3517    7.2510 Cl     28  UNL28      -0.0870
    208 CL         11.0662    4.1850    7.2509 Cl     28  UNL28      -0.0870
    209 C           9.5639    3.4289    6.6935 C.3    28  UNL28       0.1805
    210 H           9.5639    3.4288    5.6005 H      28  UNL28       0.0806
    211 CL          9.4678    1.7500   11.7515 Cl     28  UNL28      -0.0870
    212 CL          8.1581    4.3517   11.7515 Cl     28  UNL28      -0.0870
    213 CL         11.0662    4.1850   11.7514 Cl     28  UNL28      -0.0870
    214 C           9.5639    3.4289   11.1940 C.3    28  UNL28       0.1805
    215 H           9.5639    3.4288   10.1010 H      28  UNL28       0.0806
    216 CL          9.4678    1.7500   16.2520 Cl     28  UNL28      -0.0870
    217 CL          8.1581    4.3517   16.2520 Cl     28  UNL28      -0.0870
    218 CL         11.0662    4.1850   16.2519 Cl     28  UNL28      -0.0870
    219 C           9.5639    3.4289   15.6945 C.3    28  UNL28       0.1805
    220 H           9.5639    3.4288   14.6015 H      28  UNL28       0.0806
    221 CL          9.4678    1.7500   20.7525 Cl     28  UNL28      -0.0870
    222 CL          8.1581    4.3517   20.7525 Cl     28  UNL28      -0.0870
    223 CL         11.0662    4.1850   20.7524 Cl     28  UNL28      -0.0870
    224 C           9.5639    3.4289   20.1950 C.3    28  UNL28       0.1805
    225 H           9.5639    3.4288   19.1020 H      28  UNL28       0.0806
    226 CL          9.4678    1.7500   25.2530 Cl     28  UNL28      -0.0870
    227 CL          8.1581    4.3517   25.2530 Cl     28  UNL28      -0.0870
    228 CL         11.0662    4.1850   25.2529 Cl     28  UNL28      -0.0870
    229 C           9.5639    3.4289   24.6955 C.3    28  UNL28       0.1805
    230 H           9.5639    3.4288   23.6025 H      28  UNL28       0.0806
    231 CL          9.4678    1.7500   29.7535 Cl     28  UNL28      -0.0870
    232 CL          8.1581    4.3517   29.7535 Cl     28  UNL28      -0.0870
    233 CL         11.0662    4.1850   29.7534 Cl     28  UNL28      -0.0870
    234 C           9.5639    3.4289   29.1960 C.3    28  UNL28       0.1805
    235 H           9.5639    3.4288   28.1030 H      28  UNL28       0.0806
    236 CL          9.4678    1.7500   34.2540 Cl     28  UNL28      -0.0870
    237 CL          8.1581    4.3517   34.2540 Cl     28  UNL28      -0.0870
    238 CL         11.0662    4.1850   34.2539 Cl     28  UNL28      -0.0870
    239 C           9.5639    3.4289   33.6965 C.3    28  UNL28       0.1805
    240 H           9.5639    3.4288   32.6035 H      28  UNL28       0.0806
    241 CL          9.4678    7.8517    2.7505 Cl     28  UNL28      -0.0870
    242 CL          8.1581   10.4534    2.7505 Cl     28  UNL28      -0.0870
    243 CL         11.0662   10.2867    2.7504 Cl     28  UNL28      -0.0870
    244 C           9.5639    9.5306    2.1930 C.3    28  UNL28       0.1805
    245 H           9.5639    9.5305    1.1000 H      28  UNL28       0.0806
    246 CL          9.4678    7.8517    7.2510 Cl     28  UNL28      -0.0870
    247 CL          8.1581   10.4534    7.2510 Cl     28  UNL28      -0.0870
    248 CL         11.0662   10.2867    7.2509 Cl     28  UNL28      -0.0870
    249 C           9.5639    9.5306    6.6935 C.3    28  UNL28       0.1805
    250 H           9.5639    9.5305    5.6005 H      28  UNL28       0.0806
    251 CL          9.4678    7.8517   11.7515 Cl     28  UNL28      -0.0870
    252 CL          8.1581   10.4534   11.7515 Cl     28  UNL28      -0.0870
    253 CL         11.0662   10.2867   11.7514 Cl     28  UNL28      -0.0870
    254 C           9.5639    9.5306   11.1940 C.3    28  UNL28       0.1805
    255 H           9.5639    9.5305   10.1010 H      28  UNL28       0.0806
    256 CL          9.4678    7.8517   16.2520 Cl     28  UNL28      -0.0870
    257 CL          8.1581   10.4534   16.2520 Cl     28  UNL28      -0.0870
    258 CL         11.0662   10.2867   16.2519 Cl     28  UNL28      -0.0870
    259 C           9.5639    9.5306   15.6945 C.3    28  UNL28       0.1805
    260 H           9.5639    9.5305   14.6015 H      28  UNL28       0.0806
    261 CL          9.4678    7.8517   20.7525 Cl     28  UNL28      -0.0870
    262 CL          8.1581   10.4534   20.7525 Cl     28  UNL28      -0.0870
    263 CL         11.0662   10.2867   20.7524 Cl     28  UNL28      -0.0870
    264 C           9.5639    9.5306   20.1950 C.3    28  UNL28       0.1805
    265 H           9.5639    9.5305   19.1020 H      28  UNL28       0.0806
    266 CL          9.4678    7.8517   25.2530 Cl     28  UNL28      -0.0870
    267 CL          8.1581   10.4534   25.2530 Cl     28  UNL28      -0.0870
    268 CL         11.0662   10.2867   25.2529 Cl     28  UNL28      -0.0870
    269 C           9.5639    9.5306   24.6955 C.3    28  UNL28       0.1805
    270 H           9.5639    9.5305   23.6025 H      28  UNL28       0.0806
    271 CL          9.4678    7.8517   29.7535 Cl     28  UNL28      -0.0870
    272 CL          8.1581   10.4534   29.7535 Cl     28  UNL28      -0.0870
    273 CL         11.0662   10.2867   29.7534 Cl     28  UNL28      -0.0870
    274 C           9.5639    9.5306   29.1960 C.3    28  UNL28       0.1805
    275 H           9.5639    9.5305   28.1030 H      28  UNL28       0.0806
    276 CL          9.4678    7.8517   34.2540 Cl     28  UNL28      -0.0870
    277 CL          8.1581   10.4534   34.2540 Cl     28  UNL28      -0.0870
    278 CL         11.0662   10.2867   34.2539 Cl     28  UNL28      -0.0870
    279 C           9.5639    9.5306   33.6965 C.3    28  UNL28       0.1805
    280 H           9.5639    9.5305   32.6035 H      28  UNL28       0.0806
    281 CL          9.4678   13.9534    2.7505 Cl     28  UNL28      -0.0870
    282 CL          8.1581   16.5551    2.7505 Cl     28  UNL28      -0.0870
    283 CL         11.0662   16.3884    2.7504 Cl     28  UNL28      -0.0870
    284 C           9.5639   15.6323    2.1930 C.3    28  UNL28       0.1805
    285 H           9.5639   15.6322    1.1000 H      28  UNL28       0.0806
    286 CL          9.4678   13.9534    7.2510 Cl     28  UNL28      -0.0870
    287 CL          8.1581   16.5551    7.2510 Cl     28  UNL28      -0.0870
    288 CL         11.0662   16.3884    7.2509 Cl     28  UNL28      -0.0870
    289 C           9.5639   15.6323    6.6935 C.3    28  UNL28       0.1805
    290 H           9.5639   15.6322    5.6005 H      28  UNL28       0.0806
    291 CL          9.4678   13.9534   11.7515 Cl     28  UNL28      -0.0870
    292 CL          8.1581   16.5551   11.7515 Cl     28  UNL28      -0.0870
    293 CL         11.0662   16.3884   11.7514 Cl     28  UNL28      -0.0870
    294 C           9.5639   15.6323   11.1940 C.3    28  UNL28       0.1805
    295 H           9.5639   15.6322   10.1010 H      28  UNL28       0.0806
    296 CL          9.4678   13.9534   16.2520 Cl     28  UNL28      -0.0870
    297 CL          8.1581   16.5551   16.2520 Cl     28  UNL28      -0.0870
    298 CL         11.0662   16.3884   16.2519 Cl     28  UNL28      -0.0870
    299 C           9.5639   15.6323   15.6945 C.3    28  UNL28       0.1805
    300 H           9.5639   15.6322   14.6015 H      28  UNL28       0.0806
    301 CL          9.4678   13.9534   20.7525 Cl     28  UNL28      -0.0870
    302 CL          8.1581   16.5551   20.7525 Cl     28  UNL28      -0.0870
    303 CL         11.0662   16.3884   20.7524 Cl     28  UNL28      -0.0870
    304 C           9.5639   15.6323   20.1950 C.3    28  UNL28       0.1805
    305 H           9.5639   15.6322   19.1020 H      28  UNL28       0.0806
    306 CL          9.4678   13.9534   25.2530 Cl     28  UNL28      -0.0870
    307 CL          8.1581   16.5551   25.2530 Cl     28  UNL28      -0.0870
    308 CL         11.0662   16.3884   25.2529 Cl     28  UNL28      -0.0870
    309 C           9.5639   15.6323   24.6955 C.3    28  UNL28       0.1805
    310 H           9.5639   15.6322   23.6025 H      28  UNL28       0.0806
    311 CL          9.4678   13.9534   29.7535 Cl     28  UNL28      -0.0870
    312 CL          8.1581   16.5551   29.7535 Cl     28  UNL28      -0.0870
    313 CL         11.0662   16.3884   29.7534 Cl     28  UNL28      -0.0870
    314 C           9.5639   15.6323   29.1960 C.3    28  UNL28       0.1805
    315 H           9.5639   15.6322   28.1030 H      28  UNL28       0.0806
    316 CL          9.4678   13.9534   34.2540 Cl     28  UNL28      -0.0870
    317 CL          8.1581   16.5551   34.2540 Cl     28  UNL28      -0.0870
    318 CL         11.0662   16.3884   34.2539 Cl     28  UNL28      -0.0870
    319 C           9.5639   15.6323   33.6965 C.3    28  UNL28       0.1805
    320 H           9.5639   15.6322   32.6035 H      28  UNL28       0.0806
    321 CL          9.4678   20.0551    2.7505 Cl     28  UNL28      -0.0870
    322 CL          8.1581   22.6568    2.7505 Cl     28  UNL28      -0.0870
    323 CL         11.0662   22.4901    2.7504 Cl     28  UNL28      -0.0870
    324 C           9.5639   21.7340    2.1930 C.3    28  UNL28       0.1805
    325 H           9.5639   21.7339    1.1000 H      28  UNL28       0.0806
    326 CL          9.4678   20.0551    7.2510 Cl     28  UNL28      -0.0870
    327 CL          8.1581   22.6568    7.2510 Cl     28  UNL28      -0.0870
    328 CL         11.0662   22.4901    7.2509 Cl     28  UNL28      -0.0870
    329 C           9.5639   21.7340    6.6935 C.3    28  UNL28       0.1805
    330 H           9.5639   21.7339    5.6005 H      28  UNL28       0.0806
    331 CL          9.4678   20.0551   11.7515 Cl     28  UNL28      -0.0870
    332 CL          8.1581   22.6568   11.7515 Cl     28  UNL28      -0.0870
    333 CL         11.0662   22.4901   11.7514 Cl     28  UNL28      -0.0870
    334 C           9.5639   21.7340   11.1940 C.3    28  UNL28       0.1805
    335 H           9.5639   21.7339   10.1010 H      28  UNL28       0.0806
    336 CL          9.4678   20.0551   16.2520 Cl     28  UNL28      -0.0870
    337 CL          8.1581   22.6568   16.2520 Cl     28  UNL28      -0.0870
    338 CL         11.0662   22.4901   16.2519 Cl     28  UNL28      -0.0870
    339 C           9.5639   21.7340   15.6945 C.3    28  UNL28       0.1805
    340 H           9.5639   21.7339   14.6015 H      28  UNL28       0.0806
    341 CL          9.4678   20.0551   20.7525 Cl     28  UNL28      -0.0870
    342 CL          8.1581   22.6568   20.7525 Cl     28  UNL28      -0.0870
    343 CL         11.0662   22.4901   20.7524 Cl     28  UNL28      -0.0870
    344 C           9.5639   21.7340   20.1950 C.3    28  UNL28       0.1805
    345 H           9.5639   21.7339   19.1020 H      28  UNL28       0.0806
    346 CL          9.4678   20.0551   25.2530 Cl     28  UNL28      -0.0870
    347 CL          8.1581   22.6568   25.2530 Cl     28  UNL28      -0.0870
    348 CL         11.0662   22.4901   25.2529 Cl     28  UNL28      -0.0870
    349 C           9.5639   21.7340   24.6955 C.3    28  UNL28       0.1805
    350 H           9.5639   21.7339   23.6025 H      28  UNL28       0.0806
    351 CL          9.4678   20.0551   29.7535 Cl     28  UNL28      -0.0870
    352 CL          8.1581   22.6568   29.7535 Cl     28  UNL28      -0.0870
    353 CL         11.0662   22.4901   29.7534 Cl     28  UNL28      -0.0870
    354 C           9.5639   21.7340   29.1960 C.3    28  UNL28       0.1805
    355 H           9.5639   21.7339   28.1030 H      28  UNL28       0.0806
    356 CL          9.4678   20.0551   34.2540 Cl     28  UNL28      -0.0870
    357 CL          8.1581   22.6568   34.2540 Cl     28  UNL28      -0.0870
    358 CL         11.0662   22.4901   34.2539 Cl     28  UNL28      -0.0870
    359 C           9.5639   21.7340   33.6965 C.3    28  UNL28       0.1805
    360 H           9.5639   21.7339   32.6035 H      28  UNL28       0.0806
    361 CL          9.4678   26.1568    2.7505 Cl     28  UNL28      -0.0870
    362 CL          8.1581   28.7585    2.7505 Cl     28  UNL28      -0.0870
    363 CL         11.0662   28.5918    2.7504 Cl     28  UNL28      -0.0870
    364 C           9.5639   27.8357    2.1930 C.3    28  UNL28       0.1805
    365 H           9.5639   27.8356    1.1000 H      28  UNL28       0.0806
    366 CL          9.4678   26.1568    7.2510 Cl     28  UNL28      -0.0870
    367 CL          8.1581   28.7585    7.2510 Cl     28  UNL28      -0.0870
    368 CL         11.0662   28.5918    7.2509 Cl     28  UNL28      -0.0870
    369 C           9.5639   27.8357    6.6935 C.3    28  UNL28       0.1805
    370 H           9.5639   27.8356    5.6005 H      28  UNL28       0.0806
    371 CL          9.4678   26.1568   11.7515 Cl     28  UNL28      -0.0870
    372 CL          8.1581   28.7585   11.7515 Cl     28  UNL28      -0.0870
    373 CL         11.0662   28.5918   11.7514 Cl     28  UNL28      -0.0870
    374 C           9.5639   27.8357   11.1940 C.3    28  UNL28       0.1805
    375 H           9.5639   27.8356   10.1010 H      28  UNL28       0.0806
    376 CL          9.4678   26.1568   16.2520 Cl     28  UNL28      -0.0870
    377 CL          8.1581   28.7585   16.2520 Cl     28  UNL28      -0.0870
    378 CL         11.0662   28.5918   16.2519 Cl     28  UNL28      -0.0870
    379 C           9.5639   27.8357   15.6945 C.3    28  UNL28       0.1805
    380 H           9.5639   27.8356   14.6015 H      28  UNL28       0.0806
    381 CL          9.4678   26.1568   20.7525 Cl     28  UNL28      -0.0870
    382 CL          8.1581   28.7585   20.7525 Cl     28  UNL28      -0.0870
    383 CL         11.0662   28.5918   20.7524 Cl     28  UNL28      -0.0870
    384 C           9.5639   27.8357   20.1950 C.3    28  UNL28       0.1805
    385 H           9.5639   27.8356   19.1020 H      28  UNL28       0.0806
    386 CL          9.4678   26.1568   25.2530 Cl     28  UNL28      -0.0870
    387 CL          8.1581   28.7585   25.2530 Cl     28  UNL28      -0.0870
    388 CL         11.0662   28.5918   25.2529 Cl     28  UNL28      -0.0870
    389 C           9.5639   27.8357   24.6955 C.3    28  UNL28       0.1805
    390 H           9.5639   27.8356   23.6025 H      28  UNL28       0.0806
    391 CL          9.4678   26.1568   29.7535 Cl     28  UNL28      -0.0870
    392 CL          8.1581   28.7585   29.7535 Cl     28  UNL28      -0.0870
    393 CL         11.0662   28.5918   29.7534 Cl     28  UNL28      -0.0870
    394 C           9.5639   27.8357   29.1960 C.3    28  UNL28       0.1805
    395 H           9.5639   27.8356   28.1030 H      28  UNL28       0.0806
    396 CL          9.4678   26.1568   34.2540 Cl     28  UNL28      -0.0870
    397 CL          8.1581   28.7585   34.2540 Cl     28  UNL28      -0.0870
    398 CL         11.0662   28.5918   34.2539 Cl     28  UNL28      -0.0870
    399 C           9.5639   27.8357   33.6965 C.3    28  UNL28       0.1805
    400 H           9.5639   27.8356   32.6035 H      28  UNL28       0.0806
    401 CL         15.8759    1.7500    2.7505 Cl     28  UNL28      -0.0870
    402 CL         14.5662    4.3517    2.7505 Cl     28  UNL28      -0.0870
    403 CL         17.4743    4.1850    2.7504 Cl     28  UNL28      -0.0870
    404 C          15.9720    3.4289    2.1930 C.3    28  UNL28       0.1805
    405 H          15.9720    3.4288    1.1000 H      28  UNL28       0.0806
    406 CL         15.8759    1.7500    7.2510 Cl     28  UNL28      -0.0870
    407 CL         14.5662    4.3517    7.2510 Cl     28  UNL28      -0.0870
    408 CL         17.4743    4.1850    7.2509 Cl     28  UNL28      -0.0870
    409 C          15.9720    3.4289    6.6935 C.3    28  UNL28       0.1805
    410 H          15.9720    3.4288    5.6005 H      28  UNL28       0.0806
    411 CL         15.8759    1.7500   11.7515 Cl     28  UNL28      -0.0870
    412 CL         14.5662    4.3517   11.7515 Cl     28  UNL28      -0.0870
    413 CL         17.4743    4.1850   11.7514 Cl     28  UNL28      -0.0870
    414 C          15.9720    3.4289   11.1940 C.3    28  UNL28       0.1805
    415 H          15.9720    3.4288   10.1010 H      28  UNL28       0.0806
    416 CL         15.8759    1.7500   16.2520 Cl     28  UNL28      -0.0870
    417 CL         14.5662    4.3517   16.2520 Cl     28  UNL28      -0.0870
    418 CL         17.4743    4.1850   16.2519 Cl     28  UNL28      -0.0870
    419 C          15.9720    3.4289   15.6945 C.3    28  UNL28       0.1805
    420 H          15.9720    3.4288   14.6015 H      28  UNL28       0.0806
    421 CL         15.8759    1.7500   20.7525 Cl     28  UNL28      -0.0870
    422 CL         14.5662    4.3517   20.7525 Cl     28  UNL28      -0.0870
    423 CL         17.4743    4.1850   20.7524 Cl     28  UNL28      -0.0870
    424 C          15.9720    3.4289   20.1950 C.3    28  UNL28       0.1805
    425 H          15.9720    3.4288   19.1020 H      28  UNL28       0.0806
    426 CL         15.8759    1.7500   25.2530 Cl     28  UNL28      -0.0870
    427 CL         14.5662    4.3517   25.2530 Cl     28  UNL28      -0.0870
    428 CL         17.4743    4.1850   25.2529 Cl     28  UNL28      -0.0870
    429 C          15.9720    3.4289   24.6955 C.3    28  UNL28       0.1805
    430 H          15.9720    3.4288   23.6025 H      28  UNL28       0.0806
    431 CL         15.8759    1.7500   29.7535 Cl     28  UNL28      -0.0870
    432 CL         14.5662    4.3517   29.7535 Cl     28  UNL28      -0.0870
    433 CL         17.4743    4.1850   29.7534 Cl     28  UNL28      -0.0870
    434 C          15.9720    3.4289   29.1960 C.3    28  UNL28       0.1805
    435 H          15.9720    3.4288   28.1030 H      28  UNL28       0.0806
    436 CL         15.8759    1.7500   34.2540 Cl     28  UNL28      -0.0870
    437 CL         14.5662    4.3517   34.2540 Cl     28  UNL28      -0.0870
    438 CL         17.4743    4.1850   34.2539 Cl     28  UNL28      -0.0870
    439 C          15.9720    3.4289   33.6965 C.3    28  UNL28       0.1805
    440 H          15.9720    3.4288   32.6035 H      28  UNL28       0.0806
    441 CL         15.8759    7.8517    2.7505 Cl     28  UNL28      -0.0870
    442 CL         14.5662   10.4534    2.7505 Cl     28  UNL28      -0.0870
    443 CL         17.4743   10.2867    2.7504 Cl     28  UNL28      -0.0870
    444 C          15.9720    9.5306    2.1930 C.3    28  UNL28       0.1805
    445 H          15.9720    9.5305    1.1000 H      28  UNL28       0.0806
    446 CL         15.8759    7.8517    7.2510 Cl     28  UNL28      -0.0870
    447 CL         14.5662   10.4534    7.2510 Cl     28  UNL28      -0.0870
    448 CL         17.4743   10.2867    7.2509 Cl     28  UNL28      -0.0870
    449 C          15.9720    9.5306    6.6935 C.3    28  UNL28       0.1805
    450 H          15.9720    9.5305    5.6005 H      28  UNL28       0.0806
    451 CL         15.8759    7.8517   11.7515 Cl     28  UNL28      -0.0870
    452 CL         14.5662   10.4534   11.7515 Cl     28  UNL28      -0.0870
    453 CL         17.4743   10.2867   11.7514 Cl     28  UNL28      -0.0870
    454 C          15.9720    9.5306   11.1940 C.3    28  UNL28       0.1805
    455 H          15.9720    9.5305   10.1010 H      28  UNL28       0.0806
    456 CL         15.8759    7.8517   16.2520 Cl     28  UNL28      -0.0870
    457 CL         14.5662   10.4534   16.2520 Cl     28  UNL28      -0.0870
    458 CL         17.4743   10.2867   16.2519 Cl     28  UNL28      -0.0870
    459 C          15.9720    9.5306   15.6945 C.3    28  UNL28       0.1805
    460 H          15.9720    9.5305   14.6015 H      28  UNL28       0.0806
    461 CL         15.8759    7.8517   20.7525 Cl     28  UNL28      -0.0870
    462 CL         14.5662   10.4534   20.7525 Cl     28  UNL28      -0.0870
    463 CL         17.4743   10.2867   20.7524 Cl     28  UNL28      -0.0870
    464 C          15.9720    9.5306   20.1950 C.3    28  UNL28       0.1805
    465 H          15.9720    9.5305   19.1020 H      28  UNL28       0.0806
    466 CL         15.8759    7.8517   25.2530 Cl     28  UNL28      -0.0870
    467 CL         14.5662   10.4534   25.2530 Cl     28  UNL28      -0.0870
    468 CL         17.4743   10.2867   25.2529 Cl     28  UNL28      -0.0870
    469 C          15.9720    9.5306   24.6955 C.3    28  UNL28       0.1805
    470 H          15.9720    9.5305   23.6025 H      28  UNL28       0.0806
    471 CL         15.8759    7.8517   29.7535 Cl     28  UNL28      -0.0870
    472 CL         14.5662   10.4534   29.7535 Cl     28  UNL28      -0.0870
    473 CL         17.4743   10.2867   29.7534 Cl     28  UNL28      -0.0870
    474 C          15.9720    9.5306   29.1960 C.3    28  UNL28       0.1805
    475 H          15.9720    9.5305   28.1030 H      28  UNL28       0.0806
    476 CL         15.8759    7.8517   34.2540 Cl     28  UNL28      -0.0870
    477 CL         14.5662   10.4534   34.2540 Cl     28  UNL28      -0.0870
    478 CL         17.4743   10.2867   34.2539 Cl     28  UNL28      -0.0870
    479 C          15.9720    9.5306   33.6965 C.3    28  UNL28       0.1805
    480 H          15.9720    9.5305   32.6035 H      28  UNL28       0.0806
    481 CL         15.8759   13.9534    2.7505 Cl     28  UNL28      -0.0870
    482 CL         14.5662   16.5551    2.7505 Cl     28  UNL28      -0.0870
    483 CL         17.4743   16.3884    2.7504 Cl     28  UNL28      -0.0870
    484 C          15.9720   15.6323    2.1930 C.3    28  UNL28       0.1805
    485 H          15.9720   15.6322    1.1000 H      28  UNL28       0.0806
    486 CL         15.8759   13.9534    7.2510 Cl     28  UNL28      -0.0870
    487 CL         14.5662   16.5551    7.2510 Cl     28  UNL28      -0.0870
    488 CL         17.4743   16.3884    7.2509 Cl     28  UNL28      -0.0870
    489 C          15.9720   15.6323    6.6935 C.3    28  UNL28       0.1805
    490 H          15.9720   15.6322    5.6005 H      28  UNL28       0.0806
    491 CL         15.8759   13.9534   11.7515 Cl     28  UNL28      -0.0870
    492 CL         14.5662   16.5551   11.7515 Cl     28  UNL28      -0.0870
    493 CL         17.4743   16.3884   11.7514 Cl     28  UNL28      -0.0870
    494 C          15.9720   15.6323   11.1940 C.3    28  UNL28       0.1805
    495 H          15.9720   15.6322   10.1010 H      28  UNL28       0.0806
    496 CL         15.8759   13.9534   16.2520 Cl     28  UNL28      -0.0870
    497 CL         14.5662   16.5551   16.2520 Cl     28  UNL28      -0.0870
    498 CL         17.4743   16.3884   16.2519 Cl     28  UNL28      -0.0870
    499 C          15.9720   15.6323   15.6945 C.3    28  UNL28       0.1805
    500 H          15.9720   15.6322   14.6015 H      28  UNL28       0.0806
    501 CL         15.8759   13.9534   20.7525 Cl     28  UNL28      -0.0870
    502 CL         14.5662   16.5551   20.7525 Cl     28  UNL28      -0.0870
    503 CL         17.4743   16.3884   20.7524 Cl     28  UNL28      -0.0870
    504 C          15.9720   15.6323   20.1950 C.3    28  UNL28       0.1805
    505 H          15.9720   15.6322   19.1020 H      28  UNL28       0.0806
    506 CL         15.8759   13.9534   25.2530 Cl     28  UNL28      -0.0870
    507 CL         14.5662   16.5551   25.2530 Cl     28  UNL28      -0.0870
    508 CL         17.4743   16.3884   25.2529 Cl     28  UNL28      -0.0870
    509 C          15.9720   15.6323   24.6955 C.3    28  UNL28       0.1805
    510 H          15.9720   15.6322   23.6025 H      28  UNL28       0.0806
    511 CL         15.8759   13.9534   29.7535 Cl     28  UNL28      -0.0870
    512 CL         14.5662   16.5551   29.7535 Cl     28  UNL28      -0.0870
    513 CL         17.4743   16.3884   29.7534 Cl     28  UNL28      -0.0870
    514 C          15.9720   15.6323   29.1960 C.3    28  UNL28       0.1805
    515 H          15.9720   15.6322   28.1030 H      28  UNL28       0.0806
    516 CL         15.8759   13.9534   34.2540 Cl     28  UNL28      -0.0870
    517 CL         14.5662   16.5551   34.2540 Cl     28  UNL28      -0.0870
    518 CL         17.4743   16.3884   34.2539 Cl     28  UNL28      -0.0870
    519 C          15.9720   15.6323   33.6965 C.3    28  UNL28       0.1805
    520 H          15.9720   15.6322   32.6035 H      28  UNL28       0.0806
    521 CL         15.8759   20.0551    2.7505 Cl     28  UNL28      -0.0870
    522 CL         14.5662   22.6568    2.7505 Cl     28  UNL28      -0.0870
    523 CL         17.4743   22.4901    2.7504 Cl     28  UNL28      -0.0870
    524 C          15.9720   21.7340    2.1930 C.3    28  UNL28       0.1805
    525 H          15.9720   21.7339    1.1000 H      28  UNL28       0.0806
    526 CL         15.8759   20.0551    7.2510 Cl     28  UNL28      -0.0870
    527 CL         14.5662   22.6568    7.2510 Cl     28  UNL28      -0.0870
    528 CL         17.4743   22.4901    7.2509 Cl     28  UNL28      -0.0870
    529 C          15.9720   21.7340    6.6935 C.3    28  UNL28       0.1805
    530 H          15.9720   21.7339    5.6005 H      28  UNL28       0.0806
    531 CL         15.8759   20.0551   11.7515 Cl     28  UNL28      -0.0870
    532 CL         14.5662   22.6568   11.7515 Cl     28  UNL28      -0.0870
    533 CL         17.4743   22.4901   11.7514 Cl     28  UNL28      -0.0870
    534 C          15.9720   21.7340   11.1940 C.3    28  UNL28       0.1805
    535 H          15.9720   21.7339   10.1010 H      28  UNL28       0.0806
    536 CL         15.8759   20.0551   16.2520 Cl     28  UNL28      -0.0870
    537 CL         14.5662   22.6568   16.2520 Cl     28  UNL28      -0.0870
    538 CL         17.4743   22.4901   16.2519 Cl     28  UNL28      -0.0870
    539 C          15.9720   21.7340   15.6945 C.3    28  UNL28       0.1805
    540 H          15.9720   21.7339   14.6015 H      28  UNL28       0.0806
    541 CL         15.8759   20.0551   20.7525 Cl     28  UNL28      -0.0870
    542 CL         14.5662   22.6568   20.7525 Cl     28  UNL28      -0.0870
    543 CL         17.4743   22.4901   20.7524 Cl     28  UNL28      -0.0870
    544 C          15.9720   21.7340   20.1950 C.3    28  UNL28       0.1805
    545 H          15.9720   21.7339   19.1020 H      28  UNL28       0.0806
    546 CL         15.8759   20.0551   25.2530 Cl     28  UNL28      -0.0870
    547 CL         14.5662   22.6568   25.2530 Cl     28  UNL28      -0.0870
    548 CL         17.4743   22.4901   25.2529 Cl     28  UNL28      -0.0870
    549 C          15.9720   21.7340   24.6955 C.3    28  UNL28       0.1805
    550 H          15.9720   21.7339   23.6025 H      28  UNL28       0.0806
    551 CL         15.8759   20.0551   29.7535 Cl     28  UNL28      -0.0870
    552 CL         14.5662   22.6568   29.7535 Cl     28  UNL28      -0.0870
    553 CL         17.4743   22.4901   29.7534 Cl     28  UNL28      -0.0870
    554 C          15.9720   21.7340   29.1960 C.3    28  UNL28       0.1805
    555 H          15.9720   21.7339   28.1030 H      28  UNL28       0.0806
    556 CL         15.8759   20.0551   34.2540 Cl     28  UNL28      -0.0870
    557 CL         14.5662   22.6568   34.2540 Cl     28  UNL28      -0.0870
    558 CL         17.4743   22.4901   34.2539 Cl     28  UNL28      -0.0870
    559 C          15.9720   21.7340   33.6965 C.3    28  UNL28       0.1805
    560 H          15.9720   21.7339   32.6035 H      28  UNL28       0.0806
    561 CL         15.8759   26.1568    2.7505 Cl     28  UNL28      -0.0870
    562 CL         14.5662   28.7585    2.7505 Cl     28  UNL28      -0.0870
    563 CL         17.4743   28.5918    2.7504 Cl     28  UNL28      -0.0870
    564 C          15.9720   27.8357    2.1930 C.3    28  UNL28       0.1805
    565 H          15.9720   27.8356    1.1000 H      28  UNL28       0.0806
    566 CL         15.8759   26.1568    7.2510 Cl     28  UNL28      -0.0870
    567 CL         14.5662   28.7585    7.2510 Cl     28  UNL28      -0.0870
    568 CL         17.4743   28.5918    7.2509 Cl     28  UNL28      -0.0870
    569 C          15.9720   27.8357    6.6935 C.3    28  UNL28       0.1805
    570 H          15.9720   27.8356    5.6005 H      28  UNL28       0.0806
    571 CL         15.8759   26.1568   11.7515 Cl     28  UNL28      -0.0870
    572 CL         14.5662   28.7585   11.7515 Cl     28  UNL28      -0.0870
    573 CL         17.4743   28.5918   11.7514 Cl     28  UNL28      -0.0870
    574 C          15.9720   27.8357   11.1940 C.3    28  UNL28       0.1805
    575 H          15.9720   27.8356   10.1010 H      28  UNL28       0.0806
    576 CL         15.8759   26.1568   16.2520 Cl     28  UNL28      -0.0870
    577 CL         14.5662   28.7585   16.2520 Cl     28  UNL28      -0.0870
    578 CL         17.4743   28.5918   16.2519 Cl     28  UNL28      -0.0870
    579 C          15.9720   27.8357   15.6945 C.3    28  UNL28       0.1805
    580 H          15.9720   27.8356   14.6015 H      28  UNL28       0.0806
    581 CL         15.8759   26.1568   20.7525 Cl     28  UNL28      -0.0870
    582 CL         14.5662   28.7585   20.7525 Cl     28  UNL28      -0.0870
    583 CL         17.4743   28.5918   20.7524 Cl     28  UNL28      -0.0870
    584 C          15.9720   27.8357   20.1950 C.3    28  UNL28       0.1805
    585 H          15.9720   27.8356   19.1020 H      28  UNL28       0.0806
    586 CL         15.8759   26.1568   25.2530 Cl     28  UNL28      -0.0870
    587 CL         14.5662   28.7585   25.2530 Cl     28  UNL28      -0.0870
    588 CL         17.4743   28.5918   25.2529 Cl     28  UNL28      -0.0870
    589 C          15.9720   27.8357   24.6955 C.3    28  UNL28       0.1805
    590 H          15.9720   27.8356   23.6025 H      28  UNL28       0.0806
    591 CL         15.8759   26.1568   29.7535 Cl     28  UNL28      -0.0870
    592 CL         14.5662   28.7585   29.7535 Cl     28  UNL28      -0.0870
    593 CL         17.4743   28.5918   29.7534 Cl     28  UNL28      -0.0870
    594 C          15.9720   27.8357   29.1960 C.3    28  UNL28       0.1805
    595 H          15.9720   27.8356   28.1030 H      28  UNL28       0.0806
    596 CL         15.8759   26.1568   34.2540 Cl     28  UNL28      -0.0870
    597 CL         14.5662   28.7585   34.2540 Cl     28  UNL28      -0.0870
    598 CL         17.4743   28.5918   34.2539 Cl     28  UNL28      -0.0870
    599 C          15.9720   27.8357   33.6965 C.3    28  UNL28       0.1805
    600 H          15.9720   27.8356   32.6035 H      28  UNL28       0.0806
    601 CL         22.2840    1.7500    2.7505 Cl     28  UNL28      -0.0870
    602 CL         20.9743    4.3517    2.7505 Cl     28  UNL28      -0.0870
    603 CL         23.8824    4.1850    2.7504 Cl     28  UNL28      -0.0870
    604 C          22.3801    3.4289    2.1930 C.3    28  UNL28       0.1805
    605 H          22.3801    3.4288    1.1000 H      28  UNL28       0.0806
    606 CL         22.2840    1.7500    7.2510 Cl     28  UNL28      -0.0870
    607 CL         20.9743    4.3517    7.2510 Cl     28  UNL28      -0.0870
    608 CL         23.8824    4.1850    7.2509 Cl     28  UNL28      -0.0870
    609 C          22.3801    3.4289    6.6935 C.3    28  UNL28       0.1805
    610 H          22.3801    3.4288    5.6005 H      28  UNL28       0.0806
    611 CL         22.2840    1.7500   11.7515 Cl     28  UNL28      -0.0870
    612 CL         20.9743    4.3517   11.7515 Cl     28  UNL28      -0.0870
    613 CL         23.8824    4.1850   11.7514 Cl     28  UNL28      -0.0870
    614 C          22.3801    3.4289   11.1940 C.3    28  UNL28       0.1805
    615 H          22.3801    3.4288   10.1010 H      28  UNL28       0.0806
    616 CL         22.2840    1.7500   16.2520 Cl     28  UNL28      -0.0870
    617 CL         20.9743    4.3517   16.2520 Cl     28  UNL28      -0.0870
    618 CL         23.8824    4.1850   16.2519 Cl     28  UNL28      -0.0870
    619 C          22.3801    3.4289   15.6945 C.3    28  UNL28       0.1805
    620 H          22.3801    3.4288   14.6015 H      28  UNL28       0.0806
    621 CL         22.2840    1.7500   20.7525 Cl     28  UNL28      -0.0870
    622 CL         20.9743    4.3517   20.7525 Cl     28  UNL28      -0.0870
    623 CL         23.8824    4.1850   20.7524 Cl     28  UNL28      -0.0870
    624 C          22.3801    3.4289   20.1950 C.3    28  UNL28       0.1805
    625 H          22.3801    3.4288   19.1020 H      28  UNL28       0.0806
    626 CL         22.2840    1.7500   25.2530 Cl     28  UNL28      -0.0870
    627 CL         20.9743    4.3517   25.2530 Cl     28  UNL28      -0.0870
    628 CL         23.8824    4.1850   25.2529 Cl     28  UNL28      -0.0870
    629 C          22.3801    3.4289   24.6955 C.3    28  UNL28       0.1805
    630 H          22.3801    3.4288   23.6025 H      28  UNL28       0.0806
    631 CL         22.2840    1.7500   29.7535 Cl     28  UNL28      -0.0870
    632 CL         20.9743    4.3517   29.7535 Cl     28  UNL28      -0.0870
    633 CL         23.8824    4.1850   29.7534 Cl     28  UNL28      -0.0870
    634 C          22.3801    3.4289   29.1960 C.3    28  UNL28       0.1805
    635 H          22.3801    3.4288   28.1030 H      28  UNL28       0.0806
    636 CL         22.2840    1.7500   34.2540 Cl     28  UNL28      -0.0870
    637 CL         20.9743    4.3517   34.2540 Cl     28  UNL28      -0.0870
    638 CL         23.8824    4.1850   34.2539 Cl     28  UNL28      -0.0870
    639 C          22.3801    3.4289   33.6965 C.3    28  UNL28       0.1805
    640 H          22.3801    3.4288   32.6035 H      28  UNL28       0.0806
    641 CL         22.2840    7.8517    2.7505 Cl     28  UNL28      -0.0870
    642 CL         20.9743   10.4534    2.7505 Cl     28  UNL28      -0.0870
    643 CL         23.8824   10.2867    2.7504 Cl     28  UNL28      -0.0870
    644 C          22.3801    9.5306    2.1930 C.3    28  UNL28       0.1805
    645 H          22.3801    9.5305    1.1000 H      28  UNL28       0.0806
    646 CL         22.2840    7.8517    7.2510 Cl     28  UNL28      -0.0870
    647 CL         20.9743   10.4534    7.2510 Cl     28  UNL28      -0.0870
    648 CL         23.8824   10.2867    7.2509 Cl     28  UNL28      -0.0870
    649 C          22.3801    9.5306    6.6935 C.3    28  UNL28       0.1805
    650 H          22.3801    9.5305    5.6005 H      28  UNL28       0.0806
    651 CL         22.2840    7.8517   11.7515 Cl     28  UNL28      -0.0870
    652 CL         20.9743   10.4534   11.7515 Cl     28  UNL28      -0.0870
    653 CL         23.8824   10.2867   11.7514 Cl     28  UNL28      -0.0870
    654 C          22.3801    9.5306   11.1940 C.3    28  UNL28       0.1805
    655 H          22.3801    9.5305   10.1010 H      28  UNL28       0.0806
    656 CL         22.2840    7.8517   16.2520 Cl     28  UNL28      -0.0870
    657 CL         20.9743   10.4534   16.2520 Cl     28  UNL28      -0.0870
    658 CL         23.8824   10.2867   16.2519 Cl     28  UNL28      -0.0870
    659 C          22.3801    9.5306   15.6945 C.3    28  UNL28       0.1805
    660 H          22.3801    9.5305   14.6015 H      28  UNL28       0.0806
    661 CL         22.2840    7.8517   20.7525 Cl     28  UNL28      -0.0870
    662 CL         20.9743   10.4534   20.7525 Cl     28  UNL28      -0.0870
    663 CL         23.8824   10.2867   20.7524 Cl     28  UNL28      -0.0870
    664 C          22.3801    9.5306   20.1950 C.3    28  UNL28       0.1805
    665 H          22.3801    9.5305   19.1020 H      28  UNL28       0.0806
    666 CL         22.2840    7.8517   25.2530 Cl     28  UNL28      -0.0870
    667 CL         20.9743   10.4534   25.2530 Cl     28  UNL28      -0.0870
    668 CL         23.8824   10.2867   25.2529 Cl     28  UNL28      -0.0870
    669 C          22.3801    9.5306   24.6955 C.3    28  UNL28       0.1805
    670 H          22.3801    9.5305   23.6025 H      28  UNL28       0.0806
    671 CL         22.2840    7.8517   29.7535 Cl     28  UNL28      -0.0870
    672 CL         20.9743   10.4534   29.7535 Cl     28  UNL28      -0.0870
    673 CL         23.8824   10.2867   29.7534 Cl     28  UNL28      -0.0870
    674 C          22.3801    9.5306   29.1960 C.3    28  UNL28       0.1805
    675 H          22.3801    9.5305   28.1030 H      28  UNL28       0.0806
    676 CL         22.2840    7.8517   34.2540 Cl     28  UNL28      -0.0870
    677 CL         20.9743   10.4534   34.2540 Cl     28  UNL28      -0.0870
    678 CL         23.8824   10.2867   34.2539 Cl     28  UNL28      -0.0870
    679 C          22.3801    9.5306   33.6965 C.3    28  UNL28       0.1805
    680 H          22.3801    9.5305   32.6035 H      28  UNL28       0.0806
    681 CL         22.2840   13.9534    2.7505 Cl     28  UNL28      -0.0870
    682 CL         20.9743   16.5551    2.7505 Cl     28  UNL28      -0.0870
    683 CL         23.8824   16.3884    2.7504 Cl     28  UNL28      -0.0870
    684 C          22.3801   15.6323    2.1930 C.3    28  UNL28       0.1805
    685 H          22.3801   15.6322    1.1000 H      28  UNL28       0.0806
    686 CL         22.2840   13.9534    7.2510 Cl     28  UNL28      -0.0870
    687 CL         20.9743   16.5551    7.2510 Cl     28  UNL28      -0.0870
    688 CL         23.8824   16.3884    7.2509 Cl     28  UNL28      -0.0870
    689 C          22.3801   15.6323    6.6935 C.3    28  UNL28       0.1805
    690 H          22.3801   15.6322    5.6005 H      28  UNL28       0.0806
    691 CL         22.2840   13.9534   11.7515 Cl     28  UNL28      -0.0870
    692 CL         20.9743   16.5551   11.7515 Cl     28  UNL28      -0.0870
    693 CL         23.8824   16.3884   11.7514 Cl     28  UNL28      -0.0870
    694 C          22.3801   15.6323   11.1940 C.3    28  UNL28       0.1805
    695 H          22.3801   15.6322   10.1010 H      28  UNL28       0.0806
    696 CL         22.2840   13.9534   16.2520 Cl     28  UNL28      -0.0870
    697 CL         20.9743   16.5551   16.2520 Cl     28  UNL28      -0.0870
    698 CL         23.8824   16.3884   16.2519 Cl     28  UNL28      -0.0870
    699 C          22.3801   15.6323   15.6945 C.3    28  UNL28       0.1805
    700 H          22.3801   15.6322   14.6015 H      28  UNL28       0.0806
    701 CL         22.2840   13.9534   20.7525 Cl     28  UNL28      -0.0870
    702 CL         20.9743   16.5551   20.7525 Cl     28  UNL28      -0.0870
    703 CL         23.8824   16.3884   20.7524 Cl     28  UNL28      -0.0870
    704 C          22.3801   15.6323   20.1950 C.3    28  UNL28       0.1805
    705 H          22.3801   15.6322   19.1020 H      28  UNL28       0.0806
    706 CL         22.2840   13.9534   25.2530 Cl     28  UNL28      -0.0870
    707 CL         20.9743   16.5551   25.2530 Cl     28  UNL28      -0.0870
    708 CL         23.8824   16.3884   25.2529 Cl     28  UNL28      -0.0870
    709 C          22.3801   15.6323   24.6955 C.3    28  UNL28       0.1805
    710 H          22.3801   15.6322   23.6025 H      28  UNL28       0.0806
    711 CL         22.2840   13.9534   29.7535 Cl     28  UNL28      -0.0870
    712 CL         20.9743   16.5551   29.7535 Cl     28  UNL28      -0.0870
    713 CL         23.8824   16.3884   29.7534 Cl     28  UNL28      -0.0870
    714 C          22.3801   15.6323   29.1960 C.3    28  UNL28       0.1805
    715 H          22.3801   15.6322   28.1030 H      28  UNL28       0.0806
    716 CL         22.2840   13.9534   34.2540 Cl     28  UNL28      -0.0870
    717 CL         20.9743   16.5551   34.2540 Cl     28  UNL28      -0.0870
    718 CL         23.8824   16.3884   34.2539 Cl     28  UNL28      -0.0870
    719 C          22.3801   15.6323   33.6965 C.3    28  UNL28       0.1805
    720 H          22.3801   15.6322   32.6035 H      28  UNL28       0.0806
    721 CL         22.2840   20.0551    2.7505 Cl     28  UNL28      -0.0870
    722 CL         20.9743   22.6568    2.7505 Cl     28  UNL28      -0.0870
    723 CL         23.8824   22.4901    2.7504 Cl     28  UNL28      -0.0870
    724 C          22.3801   21.7340    2.1930 C.3    28  UNL28       0.1805
    725 H          22.3801   21.7339    1.1000 H      28  UNL28       0.0806
    726 CL         22.2840   20.0551    7.2510 Cl     28  UNL28      -0.0870
    727 CL         20.9743   22.6568    7.2510 Cl     28  UNL28      -0.0870
    728 CL         23.8824   22.4901    7.2509 Cl     28  UNL28      -0.0870
    729 C          22.3801   21.7340    6.6935 C.3    28  UNL28       0.1805
    730 H          22.3801   21.7339    5.6005 H      28  UNL28       0.0806
    731 CL         22.2840   20.0551   11.7515 Cl     28  UNL28      -0.0870
    732 CL         20.9743   22.6568   11.7515 Cl     28  UNL28      -0.0870
    733 CL         23.8824   22.4901   11.7514 Cl     28  UNL28      -0.0870
    734 C          22.3801   21.7340   11.1940 C.3    28  UNL28       0.1805
    735 H          22.3801   21.7339   10.1010 H      28  UNL28       0.0806
    736 CL         22.2840   20.0551   16.2520 Cl     28  UNL28      -0.0870
    737 CL         20.9743   22.6568   16.2520 Cl     28  UNL28      -0.0870
    738 CL         23.8824   22.4901   16.2519 Cl     28  UNL28      -0.0870
    739 C          22.3801   21.7340   15.6945 C.3    28  UNL28       0.1805
    740 H          22.3801   21.7339   14.6015 H      28  UNL28       0.0806
    741 CL         22.2840   20.0551   20.7525 Cl     28  UNL28      -0.0870
    742 CL         20.9743   22.6568   20.7525 Cl     28  UNL28      -0.0870
    743 CL         23.8824   22.4901   20.7524 Cl     28  UNL28      -0.0870
    744 C          22.3801   21.7340   20.1950 C.3    28  UNL28       0.1805
    745 H          22.3801   21.7339   19.1020 H      28  UNL28       0.0806
    746 CL         22.2840   20.0551   25.2530 Cl     28  UNL28      -0.0870
    747 CL         20.9743   22.6568   25.2530 Cl     28  UNL28      -0.0870
    748 CL         23.8824   22.4901   25.2529 Cl     28  UNL28      -0.0870
    749 C          22.3801   21.7340   24.6955 C.3    28  UNL28       0.1805
    750 H          22.3801   21.7339   23.6025 H      28  UNL28       0.0806
    751 CL         22.2840   20.0551   29.7535 Cl     28  UNL28      -0.0870
    752 CL         20.9743   22.6568   29.7535 Cl     28  UNL28      -0.0870
    753 CL         23.8824   22.4901   29.7534 Cl     28  UNL28      -0.0870
    754 C          22.3801   21.7340   29.1960 C.3    28  UNL28       0.1805
    755 H          22.3801   21.7339   28.1030 H      28  UNL28       0.0806
    756 CL         22.2840   20.0551   34.2540 Cl     28  UNL28      -0.0870
    757 CL         20.9743   22.6568   34.2540 Cl     28  UNL28      -0.0870
    758 CL         23.8824   22.4901   34.2539 Cl     28  UNL28      -0.0870
    759 C          22.3801   21.7340   33.6965 C.3    28  UNL28       0.1805
    760 H          22.3801   21.7339   32.6035 H      28  UNL28       0.0806
    761 CL         22.2840   26.1568    2.7505 Cl     28  UNL28      -0.0870
    762 CL         20.9743   28.7585    2.7505 Cl     28  UNL28      -0.0870
    763 CL         23.8824   28.5918    2.7504 Cl     28  UNL28      -0.0870
    764 C          22.3801   27.8357    2.1930 C.3    28  UNL28       0.1805
    765 H          22.3801   27.8356    1.1000 H      28  UNL28       0.0806
    766 CL         22.2840   26.1568    7.2510 Cl     28  UNL28      -0.0870
    767 CL         20.9743   28.7585    7.2510 Cl     28  UNL28      -0.0870
    768 CL         23.8824   28.5918    7.2509 Cl     28  UNL28      -0.0870
    769 C          22.3801   27.8357    6.6935 C.3    28  UNL28       0.1805
    770 H          22.3801   27.8356    5.6005 H      28  UNL28       0.0806
    771 CL         22.2840   26.1568   11.7515 Cl     28  UNL28      -0.0870
    772 CL         20.9743   28.7585   11.7515 Cl     28  UNL28      -0.0870
    773 CL         23.8824   28.5918   11.7514 Cl     28  UNL28      -0.0870
    774 C          22.3801   27.8357   11.1940 C.3    28  UNL28       0.1805
    775 H          22.3801   27.8356   10.1010 H      28  UNL28       0.0806
    776 CL         22.2840   26.1568   16.2520 Cl     28  UNL28      -0.0870
    777 CL         20.9743   28.7585   16.2520 Cl     28  UNL28      -0.0870
    778 CL         23.8824   28.5918   16.2519 Cl     28  UNL28      -0.0870
    779 C          22.3801   27.8357   15.6945 C.3    28  UNL28       0.1805
    780 H          22.3801   27.8356   14.6015 H      28  UNL28       0.0806
    781 CL         22.2840   26.1568   20.7525 Cl     28  UNL28      -0.0870
    782 CL         20.9743   28.7585   20.7525 Cl     28  UNL28      -0.0870
    783 CL         23.8824   28.5918   20.7524 Cl     28  UNL28      -0.0870
    784 C          22.3801   27.8357   20.1950 C.3    28  UNL28       0.1805
    785 H          22.3801   27.8356   19.1020 H      28  UNL28       0.0806
    786 CL         22.2840   26.1568   25.2530 Cl     28  UNL28      -0.0870
    787 CL         20.9743   28.7585   25.2530 Cl     28  UNL28      -0.0870
    788 CL         23.8824   28.5918   25.2529 Cl     28  UNL28      -0.0870
    789 C          22.3801   27.8357   24.6955 C.3    28  UNL28       0.1805
    790 H          22.3801   27.8356   23.6025 H      28  UNL28       0.0806
    791 CL         22.2840   26.1568   29.7535 Cl     28  UNL28      -0.0870
    792 CL         20.9743   28.7585   29.7535 Cl     28  UNL28      -0.0870
    793 CL         23.8824   28.5918   29.7534 Cl     28  UNL28      -0.0870
    794 C          22.3801   27.8357   29.1960 C.3    28  UNL28       0.1805
    795 H          22.3801   27.8356   28.1030 H      28  UNL28       0.0806
    796 CL         22.2840   26.1568   34.2540 Cl     28  UNL28      -0.0870
    797 CL         20.9743   28.7585   34.2540 Cl     28  UNL28      -0.0870
    798 CL         23.8824   28.5918   34.2539 Cl     28  UNL28      -0.0870
    799 C          22.3801   27.8357   33.6965 C.3    28  UNL28       0.1805
    800 H          22.3801   27.8356   32.6035 H      28  UNL28       0.0806
@<TRIPOS>BOND
     1     1     4    1
     2     2     4    1
     3     3     4    1
     4     4     5    1
     5     6     9    1
     6     7     9    1
     7     8     9    1
     8     9    10    1
     9    11    14    1
    10    12    14    1
    11    13    14    1
    12    14    15    1
    13    16    19    1
    14    17    19    1
    15    18    19    1
    16    19    20    1
    17    21    24    1
    18    22    24    1
    19    23    24    1
    20    24    25    1
    21    26    29    1
    22    27    29    1
    23    28    29    1
    24    29    30    1
    25    31    34    1
    26    32    34    1
    27    33    34    1
    28    34    35    1
    29    36    39    1
    30    37    39    1
    31    38    39    1
    32    39    40    1
    33    41    44    1
    34    42    44    1
    35    43    44    1
    36    44    45    1
    37    46    49    1
    38    47    49    1
    39    48    49    1
    40    49    50    1
    41    51    54    1
    42    52    54    1
    43    53    54    1
    44    54    55    1
    45    56    59    1
    46    57    59    1
    47    58    59    1
    48    59    60    1
    49    61    64    1
    50    62    64    1
    51    63    64    1
    52    64    65    1
    53    66    69    1
    54    67    69    1
    55    68    69    1
    56    69    70    1
    57    71    74    1
    58    72    74    1
    59    73    74    1
    60    74    75    1
    61    76    79    1
    62    77    79    1
    63    78    79    1
    64    79    80    1
    65    81    84    1
    66    82    84    1
    67    83    84    1
    68    84    85    1
    69    86    89    1
    70    87    89    1
    71    88    89    1
    72    89    90    1
    73    91    94    1
    74    92    94    1
    75    93    94    1
    76    94    95    1
    77    96    99    1
    78    97    99    1
    79    98    99    1
    80    99   100    1
    81   101   104    1
    82   102   104    1
    83   103   104    1
    84   104   105    1
    85   106   109    1
    86   107   109    1
    87   108   109    1
    88   109   110    1
    89   111   114    1
    90   112   114    1
    91   113   114    1
    92   114   115    1
    93   116   119    1
    94   117   119    1
    95   118   119    1
    96   119   120    1
    97   121   124    1
    98   122   124    1
    99   123   124    1
   100   124   125    1
   101   126   129    1
   102   127   129    1
   103   128   129    1
   104   129   130    1
   105   131   134    1
   106   132   134    1
   107   133   134    1
   108   134   135    1
   109   136   139    1
   110   137   139    1
   111   138   139    1
   112   139   140    1
   113   141   144    1
   114   142   144    1
   115   143   144    1
   116   144   145    1
   117   146   149    1
   118   147   149    1
   119   148   149    1
   120   149   150    1
   121   151   154    1
   122   152   154    1
   123   153   154    1
   124   154   155    1
   125   156   159    1
   126   157   159    1
   127   158   159    1
   128   159   160    1
   129   161   164    1
   130   162   164    1
   131   163   164    1
   132   164   165    1
   133   166   169    1
   134   167   169    1
   135   168   169    1
   136   169   170    1
   137   171   174    1
   138   172   174    1
   139   173   174    1
   140   174   175    1
   141   176   179    1
   142   177   179    1
   143   178   179    1
   144   179   180    1
   145   181   184    1
   146   182   184    1
   147   183   184    1
   148   184   185    1
   149   186   189    1
   150   187   189    1
   151   188   189    1
   152   189   190    1
   153   191   194    1
   154   192   194    1
   155   193   194    1
   156   194   195    1
   157   196   199    1
   158   197   199    1
   159   198   199    1
   160   199   200    1
   161   201   204    1
   162   202   204    1
   163   203   204    1
   164   204   205    1
   165   206   209    1
   166   207   209    1
   167   208   209    1
   168   209   210    1
   169   211   214    1
   170   212   214    1
   171   213   214    1
   172   214   215    1
   173   216   219    1
   174   217   219    1
   175   218   219    1
   176   219   220    1
   177   221   224    1
   178   222   224    1
   179   223   224    1
   180   224   225    1
   181   226   229    1
   182   227   229    1
   183   228   229    1
   184   229   230    1
   185   231   234    1
   186   232   234    1
   187   233   234    1
   188   234   235    1
   189   236   239    1
   190   237   239    1
   191   238   239    1
   192   239   240    1
   193   241   244    1
   194   242   244    1
   195   243   244    1
   196   244   245    1
   197   246   249    1
   198   247   249    1
   199   248   249    1
   200   249   250    1
   201   251   254    1
   202   252   254    1
   203   253   254    1
   204   254   255    1
   205   256   259    1
   206   257   259    1
   207   258   259    1
   208   259   260    1
   209   261   264    1
   210   262   264    1
   211   263   264    1
   212   264   265    1
   213   266   269    1
   214   267   269    1
   215   268   269    1
   216   269   270    1
   217   271   274    1
   218   272   274    1
   219   273   274    1
   220   274   275    1
   221   276   279    1
   222   277   279    1
   223   278   279    1
   224   279   280    1
   225   281   284    1
   226   282   284    1
   227   283   284    1
   228   284   285    1
   229   286   289    1
   230   287   289    1
   231   288   289    1
   232   289   290    1
   233   291   294    1
   234   292   294    1
   235   293   294    1
   236   294   295    1
   237   296   299    1
   238   297   299    1
   239   298   299    1
   240   299   300    1
   241   301   304    1
   242   302   304    1
   243   303   304    1
   244   304   305    1
   245   306   309    1
   246   307   309    1
   247   308   309    1
   248   309   310    1
   249   311   314    1
   250   312   314    1
   251   313   314    1
   252   314   315    1
   253   316   319    1
   254   317   319    1
   255   318   319    1
   256   319   320    1
   257   321   324    1
   258   322   324    1
   259   323   324    1
   260   324   325    1
   261   326   329    1
   262   327   329    1
   263   328   329    1
   264   329   330    1
   265   331   334    1
   266   332   334    1
   267   333   334    1
   268   334   335    1
   269   336   339    1
   270   337   339    1
   271   338   339    1
   272   339   340    1
   273   341   344    1
   274   342   344    1
   275   343   344    1
   276   344   345    1
   277   346   349    1
   278   347   349    1
   279   348   349    1
   280   349   350    1
   281   351   354    1
   282   352   354    1
   283   353   354    1
   284   354   355    1
   285   356   359    1
   286   357   359    1
   287   358   359    1
   288   359   360    1
   289   361   364    1
   290   362   364    1
   291   363   364    1
   292   364   365    1
   293   366   369    1
   294   367   369    1
   295   368   369    1
   296   369   370    1
   297   371   374    1
   298   372   374    1
   299   373   374    1
   300   374   375    1
   301   376   379    1
   302   377   379    1
   303   378   379    1
   304   379   380    1
   305   381   384    1
   306   382   384    1
   307   383   384    1
   308   384   385    1
   309   386   389    1
   310   387   389    1
   311   388   389    1
   312   389   390    1
   313   391   394    1
   314   392   394    1
   315   393   394    1
   316   394   395    1
   317   396   399    1
   318   397   399    1
   319   398   399    1
   320   399   400    1
   321   401   404    1
   322   402   404    1
   323   403   404    1
   324   404   405    1
   325   406   409    1
   326   407   409    1
   327   408   409    1
   328   409   410    1
   329   411   414    1
   330   412   414    1
   331   413   414    1
   332   414   415    1
   333   416   419    1
   334   417   419    1
   335   418   419    1
   336   419   420    1
   337   421   424    1
   338   422   424    1
   339   423   424    1
   340   424   425    1
   341   426   429    1
   342   427   429    1
   343   428   429    1
   344   429   430    1
   345   431   434    1
   346   432   434    1
   347   433   434    1
   348   434   435    1
   349   436   439    1
   350   437   439    1
   351   438   439    1
   352   439   440    1
   353   441   444    1
   354   442   444    1
   355   443   444    1
   356   444   445    1
   357   446   449    1
   358   447   449    1
   359   448   449    1
   360   449   450    1
   361   451   454    1
   362   452   454    1
   363   453   454    1
   364   454   455    1
   365   456   459    1
   366   457   459    1
   367   458   459    1
   368   459   460    1
   369   461   464    1
   370   462   464    1
   371   463   464    1
   372   464   465    1
   373   466   469    1
   374   467   469    1
   375   468   469    1
   376   469   470    1
   377   471   474    1
   378   472   474    1
   379   473   474    1
   380   474   475    1
   381   476   479    1
   382   477   479    1
   383   478   479    1
   384   479   480    1
   385   481   484    1
   386   482   484    1
   387   483   484    1
   388   484   485    1
   389   486   489    1
   390   487   489    1
   391   488   489    1
   392   489   490    1
   393   491   494    1
   394   492   494    1
   395   493   494    1
   396   494   495    1
   397   496   499    1
   398   497   499    1
   399   498   499    1
   400   499   500    1
   401   501   504    1
   402   502   504    1
   403   503   504    1
   404   504   505    1
   405   506   509    1
   406   507   509    1
   407   508   509    1
   408   509   510    1
   409   511   514    1
   410   512   514    1
   411   513   514    1
   412   514   515    1
   413   516   519    1
   414   517   519    1
   415   518   519    1
   416   519   520    1
   417   521   524    1
   418   522   524    1
   419   523   524    1
   420   524   525    1
   421   526   529    1
   422   527   529    1
   423   528   529    1
   424   529   530    1
   425   531   534    1
   426   532   534    1
   427   533   534    1
   428   534   535    1
   429   536   539    1
   430   537   539    1
   431   538   539    1
   432   539   540    1
   433   541   544    1
   434   542   544    1
   435   543   544    1
   436   544   545    1
   437   546   549    1
   438   547   549    1
   439   548   549    1
   440   549   550    1
   441   551   554    1
   442   552   554    1
   443   553   554    1
   444   554   555    1
   445   556   559    1
   446   557   559    1
   447   558   559    1
   448   559   560    1
   449   561   564    1
   450   562   564    1
   451   563   564    1
   452   564   565    1
   453   566   569    1
   454   567   569    1
   455   568   569    1
   456   569   570    1
   457   571   574    1
   458   572   574    1
   459   573   574    1
   460   574   575    1
   461   576   579    1
   462   577   579    1
   463   578   579    1
   464   579   580    1
   465   581   584    1
   466   582   584    1
   467   583   584    1
   468   584   585    1
   469   586   589    1
   470   587   589    1
   471   588   589    1
   472   589   590    1
   473   591   594    1
   474   592   594    1
   475   593   594    1
   476   594   595    1
   477   596   599    1
   478   597   599    1
   479   598   599    1
   480   599   600    1
   481   601   604    1
   482   602   604    1
   483   603   604    1
   484   604   605    1
   485   606   609    1
   486   607   609    1
   487   608   609    1
   488   609   610    1
   489   611   614    1
   490   612   614    1
   491   613   614    1
   492   614   615    1
   493   616   619    1
   494   617   619    1
   495   618   619    1
   496   619   620    1
   497   621   624    1
   498   622   624    1
   499   623   624    1
   500   624   625    1
   501   626   629    1
   502   627   629    1
   503   628   629    1
   504   629   630    1
   505   631   634    1
   506   632   634    1
   507   633   634    1
   508   634   635    1
   509   636   639    1
   510   637   639    1
   511   638   639    1
   512   639   640    1
   513   641   644    1
   514   642   644    1
   515   643   644    1
   516   644   645    1
   517   646   649    1
   518   647   649    1
   519   648   649    1
   520   649   650    1
   521   651   654    1
   522   652   654    1
   523   653   654    1
   524   654   655    1
   525   656   659    1
   526   657   659    1
   527   658   659    1
   528   659   660    1
   529   661   664    1
   530   662   664    1
   531   663   664    1
   532   664   665    1
   533   666   669    1
   534   667   669    1
   535   668   669    1
   536   669   670    1
   537   671   674    1
   538   672   674    1
   539   673   674    1
   540   674   675    1
   541   676   679    1
   542   677   679    1
   543   678   679    1
   544   679   680    1
   545   681   684    1
   546   682   684    1
   547   683   684    1
   548   684   685    1
   549   686   689    1
   550   687   689    1
   551   688   689    1
   552   689   690    1
   553   691   694    1
   554   692   694    1
   555   693   694    1
   556   694   695    1
   557   696   699    1
   558   697   699    1
   559   698   699    1
   560   699   700    1
   561   701   704    1
   562   702   704    1
   563   703   704    1
   564   704   705    1
   565   706   709    1
   566   707   709    1
   567   708   709    1
   568   709   710    1
   569   711   714    1
   570   712   714    1
   571   713   714    1
   572   714   715    1
   573   716   719    1
   574   717   719    1
   575   718   719    1
   576   719   720    1
   577   721   724    1
   578   722   724    1
   579   723   724    1
   580   724   725    1
   581   726   729    1
   582   727   729    1
   583   728   729    1
   584   729   730    1
   585   731   734    1
   586   732   734    1
   587   733   734    1
   588   734   735    1
   589   736   739    1
   590   737   739    1
   591   738   739    1
   592   739   740    1
   593   741   744    1
   594   742   744    1
   595   743   744    1
   596   744   745    1
   597   746   749    1
   598   747   749    1
   599   748   749    1
   600   749   750    1
   601   751   754    1
   602   752   754    1
   603   753   754    1
   604   754   755    1
   605   756   759    1
   606   757   759    1
   607   758   759    1
   608   759   760    1
   609   761   764    1
   610   762   764    1
   611   763   764    1
   612   764   765    1
   613   766   769    1
   614   767   769    1
   615   768   769    1
   616   769   770    1
   617   771   774    1
   618   772   774    1
   619   773   774    1
   620   774   775    1
   621   776   779    1
   622   777   779    1
   623   778   779    1
   624   779   780    1
   625   781   784    1
   626   782   784    1
   627   783   784    1
   628   784   785    1
   629   786   789    1
   630   787   789    1
   631   788   789    1
   632   789   790    1
   633   791   794    1
   634   792   794    1
   635   793   794    1
   636   794   795    1
   637   796   799    1
   638   797   799    1
   639   798   799    1
   640   799   800    1
