@<TRIPOS>MOLECULE
*****
 240 210 0 0 0
SMALL
GASTEIGER

@<TRIPOS>ATOM
      1 CL         -1.5810   -2.4596   -2.2868 Cl      1  UNL1       -0.1242
      2 CL          1.7228   -2.4298   -2.2477 Cl      1  UNL1       -0.1242
      3 C          -0.6046   -1.5806   -1.0856 C.3     1  UNL1        0.0360
      4 C           0.7055   -1.0862   -1.6745 C.3     1  UNL1        0.0360
      5 H          -0.4301   -2.2542   -0.2407 H       1  UNL1        0.0441
      6 H          -1.2029   -0.7362   -0.7311 H       1  UNL1        0.0441
      7 H           1.2781   -0.5402   -0.9191 H       1  UNL1        0.0441
      8 H           0.5311   -0.4154   -2.5215 H       1  UNL1        0.0441
      9 CL         -3.1135   -0.1201    0.7279 Cl      2  UNL2       -0.1242
     10 CL         -0.8144    0.2255    3.0757 Cl      2  UNL2       -0.1242
     11 C          -2.5577   -1.4416    1.7832 C.3     2  UNL2        0.0360
     12 C          -2.1602   -0.9366    3.1597 C.3     2  UNL2        0.0360
     13 H          -1.7178   -1.9354    1.2845 H       2  UNL2        0.0441
     14 H          -3.3768   -2.1617    1.8661 H       2  UNL2        0.0441
     15 H          -1.8352   -1.7700    3.7894 H       2  UNL2        0.0441
     16 H          -2.9990   -0.4397    3.6570 H       2  UNL2        0.0441
     17 CL         -3.3944   -2.4589    6.9073 Cl      3  UNL3       -0.1242
     18 CL         -0.2684   -2.4225    7.9771 Cl      3  UNL3       -0.1242
     19 C          -2.2586   -1.1173    6.6265 C.3     3  UNL3        0.0360
     20 C          -0.8264   -1.6069    6.4965 C.3     3  UNL3        0.0360
     21 H          -2.3627   -0.4130    7.4579 H       3  UNL3        0.0441
     22 H          -2.5702   -0.6104    5.7086 H       3  UNL3        0.0441
     23 H          -0.1534   -0.7643    6.3126 H       3  UNL3        0.0441
     24 H          -0.7230   -2.3137    5.6674 H       3  UNL3        0.0441
     25 CL         -0.5509   -2.4598   12.2056 Cl      4  UNL4       -0.1242
     26 CL         -3.3954   -2.1153   10.5602 Cl      4  UNL4       -0.1242
     27 C          -1.0662   -0.9548   11.4067 C.3     4  UNL4        0.0360
     28 C          -2.5766   -0.7930   11.4261 C.3     4  UNL4        0.0360
     29 H          -0.6828   -0.9734   10.3817 H       4  UNL4        0.0441
     30 H          -0.5896   -0.1235   11.9344 H       4  UNL4        0.0441
     31 H          -2.8632    0.1443   10.9404 H       4  UNL4        0.0441
     32 H          -2.9603   -0.7778   12.4510 H       4  UNL4        0.0441
     33 CL          2.6449    1.9017   -1.8055 Cl      5  UNL5       -0.1242
     34 CL          0.2654    1.5156    0.4543 Cl      5  UNL5       -0.1242
     35 C           1.8645    3.2458   -0.9377 C.3     5  UNL5        0.0360
     36 C           1.4484    2.8457    0.4675 C.3     5  UNL5        0.0360
     37 H           1.0023    3.5687   -1.5296 H       5  UNL5        0.0441
     38 H           2.5809    4.0716   -0.8996 H       5  UNL5        0.0441
     39 H           0.9838    3.6928    0.9805 H       5  UNL5        0.0441
     40 H           2.3100    2.5195    1.0582 H       5  UNL5        0.0441
     41 CL         -2.5808    3.5435    1.7147 Cl      6  UNL6       -0.1242
     42 CL         -3.3930    3.7426    4.9113 Cl      6  UNL6       -0.1242
     43 C          -1.4024    3.5063    3.0485 C.3     6  UNL6        0.0360
     44 C          -1.9788    2.8551    4.2941 C.3     6  UNL6        0.0360
     45 H          -1.0919    4.5368    3.2476 H       6  UNL6        0.0441
     46 H          -0.5290    2.9481    2.6991 H       6  UNL6        0.0441
     47 H          -1.2304    2.8350    5.0917 H       6  UNL6        0.0441
     48 H          -2.2925    1.8259    4.0941 H       6  UNL6        0.0441
     49 CL         -0.1470    1.0365    8.8473 Cl      7  UNL7       -0.1242
     50 CL         -3.3941    1.5753    8.5584 Cl      7  UNL7       -0.1242
     51 C          -0.8786    2.0862    7.6097 C.3     7  UNL7        0.0360
     52 C          -2.1421    2.7609    8.1158 C.3     7  UNL7        0.0360
     53 H          -1.0841    1.4697    6.7290 H       7  UNL7        0.0441
     54 H          -0.1328    2.8374    7.3341 H       7  UNL7        0.0441
     55 H          -2.5625    3.4079    7.3403 H       7  UNL7        0.0441
     56 H          -1.9373    3.3746    8.9985 H       7  UNL7        0.0441
     57 CL         -3.3945    6.6463   -1.9485 Cl      8  UNL8       -0.1242
     58 CL         -0.3678    5.4504   -2.5198 Cl      8  UNL8       -0.1242
     59 C          -2.5330    5.5427   -0.8490 C.3     8  UNL8        0.0360
     60 C          -1.0299    5.7572   -0.8961 C.3     8  UNL8        0.0360
     61 H          -2.7963    4.5185   -1.1312 H       8  UNL8        0.0441
     62 H          -2.9101    5.7260    0.1614 H       8  UNL8        0.0441
     63 H          -0.5282    5.0756   -0.2031 H       8  UNL8        0.0441
     64 H          -0.7669    6.7824   -0.6173 H       8  UNL8        0.0441
     65 CL          0.3449    6.3177    2.3528 Cl      9  UNL9       -0.1242
     66 CL         -2.5857    6.9676    3.7336 Cl      9  UNL9       -0.1242
     67 C          -0.5704    7.8220    2.0913 C.3     9  UNL9        0.0360
     68 C          -1.3816    8.2102    3.3157 C.3     9  UNL9        0.0360
     69 H          -1.2154    7.6723    1.2197 H       9  UNL9        0.0441
     70 H           0.1516    8.6077    1.8508 H       9  UNL9        0.0441
     71 H          -1.9229    9.1427    3.1311 H       9  UNL9        0.0441
     72 H          -0.7370    8.3564    4.1880 H       9  UNL9        0.0441
     73 CL         -0.2456    7.2251    7.7960 Cl     10  UNL10      -0.1242
     74 CL         -3.3604    6.9173    6.7372 Cl     10  UNL10      -0.1242
     75 C          -1.3082    8.5992    7.4065 C.3    10  UNL10       0.0360
     76 C          -2.7654    8.2889    7.7033 C.3    10  UNL10       0.0360
     77 H          -1.1624    8.8441    6.3498 H      10  UNL10       0.0441
     78 H          -0.9736    9.4522    8.0040 H      10  UNL10       0.0441
     79 H          -3.3924    9.1534    7.4666 H      10  UNL10       0.0441
     80 H          -2.9106    8.0406    8.7593 H      10  UNL10       0.0441
     81 CL          1.7263    7.2890   12.1910 Cl     11  UNL11      -0.1242
     82 CL         -1.2383    6.9649   10.7685 Cl     11  UNL11      -0.1242
     83 C           1.0122    8.4888   11.0866 C.3    11  UNL11       0.0360
     84 C          -0.5024    8.5279   11.1973 C.3    11  UNL11       0.0360
     85 H           1.3289    8.2358   10.0699 H      11  UNL11       0.0441
     86 H           1.4359    9.4640   11.3434 H      11  UNL11       0.0441
     87 H          -0.9123    9.2809   10.5178 H      11  UNL11       0.0441
     88 H          -0.8190    8.7775   12.2147 H      11  UNL11       0.0441
     89 CL         -3.3640    9.3752    0.6471 Cl     12  UNL12      -0.1242
     90 CL         -3.3941   10.3098   -2.5219 Cl     12  UNL12      -0.1242
     91 C          -1.9064    9.5230   -0.3641 C.3    12  UNL12       0.0360
     92 C          -2.0472   10.6240   -1.4012 C.3    12  UNL12       0.0360
     93 H          -1.7298    8.5523   -0.8381 H      12  UNL12       0.0441
     94 H          -1.0652    9.7357    0.3020 H      12  UNL12       0.0441
     95 H          -1.1342   10.7003   -1.9988 H      12  UNL12       0.0441
     96 H          -2.2272   11.5940   -0.9275 H      12  UNL12       0.0441
     97 CL          6.1721   -2.0090   -1.7472 Cl     13  UNL13      -0.1242
     98 CL          3.5696   -2.4608    0.2378 Cl     13  UNL13      -0.1242
     99 C           4.9128   -0.7846   -1.4577 C.3    13  UNL13       0.0360
    100 C           4.3407   -0.8831   -0.0539 C.3    13  UNL13       0.0360
    101 H           4.1336   -0.9228   -2.2139 H      13  UNL13       0.0441
    102 H           5.3686    0.1976   -1.6127 H      13  UNL13       0.0441
    103 H           3.5796   -0.1125    0.0997 H      13  UNL13       0.0441
    104 H           5.1205   -0.7484    0.7022 H      13  UNL13       0.0441
    105 CL          1.5501   -2.1548    4.4047 Cl     14  UNL14      -0.1242
    106 CL          4.8267   -2.4602    4.7010 Cl     14  UNL14      -0.1242
    107 C           2.7070   -0.8358    4.1036 C.3    14  UNL14       0.0360
    108 C           4.0264   -1.3548    3.5580 C.3    14  UNL14       0.0360
    109 H           2.8519   -0.2980    5.0458 H      14  UNL14       0.0441
    110 H           2.2444   -0.1509    3.3872 H      14  UNL14       0.0441
    111 H           4.7122   -0.5233    3.3711 H      14  UNL14       0.0441
    112 H           3.8811   -1.8956    2.6177 H      14  UNL14       0.0441
    113 CL          2.6995    0.7573    7.7891 Cl     15  UNL15      -0.1242
    114 CL          2.7865   -2.1815    9.2968 Cl     15  UNL15      -0.1242
    115 C           4.0930   -0.3493    7.7397 C.3    15  UNL15       0.0360
    116 C           3.6612   -1.8048    7.7929 C.3    15  UNL15       0.0360
    117 H           4.7472   -0.0990    8.5808 H      15  UNL15       0.0441
    118 H           4.6377   -0.1497    6.8123 H      15  UNL15       0.0441
    119 H           4.5353   -2.4609    7.7486 H      15  UNL15       0.0441
    120 H           3.0042   -2.0541    6.9538 H      15  UNL15       0.0441
    121 CL          7.4334    2.8778    0.8229 Cl     16  UNL16      -0.1242
    122 CL          4.5814    4.5389    0.9789 Cl     16  UNL16      -0.1242
    123 C           6.1986    2.8641   -0.4592 C.3    16  UNL16       0.0360
    124 C           5.4475    4.1824   -0.5348 C.3    16  UNL16       0.0360
    125 H           5.5178    2.0311   -0.2572 H      16  UNL16       0.0441
    126 H           6.7102    2.6651   -1.4053 H      16  UNL16       0.0441
    127 H           4.7051    4.1497   -1.3376 H      16  UNL16       0.0441
    128 H           6.1287    5.0157   -0.7333 H      16  UNL16       0.0441
    129 CL          4.7295    1.5614    4.8652 Cl     17  UNL17      -0.1242
    130 CL          1.4915    2.2183    4.8982 Cl     17  UNL17      -0.1242
    131 C           3.9166    2.6349    3.7009 C.3    17  UNL17       0.0360
    132 C           2.7352    3.3564    4.3266 C.3    17  UNL17       0.0360
    133 H           3.6021    2.0247    2.8484 H      17  UNL17       0.0441
    134 H           4.6580    3.3577    3.3482 H      17  UNL17       0.0441
    135 H           2.2634    4.0169    3.5933 H      17  UNL17       0.0441
    136 H           3.0492    3.9638    5.1811 H      17  UNL17       0.0441
    137 CL          4.4517    3.0793    8.4731 Cl     18  UNL18      -0.1242
    138 CL          1.5601    3.4584   10.0264 Cl     18  UNL18      -0.1242
    139 C           3.2926    4.3835    8.1207 C.3    18  UNL18       0.0360
    140 C           2.5187    4.8018    9.3592 C.3    18  UNL18       0.0360
    141 H           2.6196    4.0278    7.3343 H      18  UNL18       0.0441
    142 H           3.8616    5.2302    7.7260 H      18  UNL18       0.0441
    143 H           1.8242    5.6114    9.1163 H      18  UNL18       0.0441
    144 H           3.1918    5.1543   10.1469 H      18  UNL18       0.0441
    145 CL          3.2420    7.4402   -2.5193 Cl     19  UNL19      -0.1242
    146 CL          2.6531    6.9739    0.6983 Cl     19  UNL19      -0.1242
    147 C           2.1251    8.4352   -1.5543 C.3    19  UNL19       0.0360
    148 C           2.5811    8.5581   -0.1104 C.3    19  UNL19       0.0360
    149 H           1.1321    7.9794   -1.6189 H      19  UNL19       0.0441
    150 H           2.0784    9.4230   -2.0218 H      19  UNL19       0.0441
    151 H           1.8841    9.1836    0.4549 H      19  UNL19       0.0441
    152 H           3.5755    9.0106   -0.0460 H      19  UNL19       0.0441
    153 CL          4.3268    6.0019    4.0708 Cl     20  UNL20      -0.1242
    154 CL          1.2659    6.6594    5.1272 Cl     20  UNL20      -0.1242
    155 C           3.6633    7.6441    4.2491 C.3    20  UNL20       0.0360
    156 C           2.6640    7.7294    5.3901 C.3    20  UNL20       0.0360
    157 H           3.2017    7.9223    3.2964 H      20  UNL20       0.0441
    158 H           4.5042    8.3197    4.4310 H      20  UNL20       0.0441
    159 H           2.2828    8.7504    5.4841 H      20  UNL20       0.0441
    160 H           3.1247    7.4479    6.3421 H      20  UNL20       0.0441
    161 CL          6.8659    7.5892    8.0944 Cl     21  UNL21      -0.1242
    162 CL          3.6296    7.6937    8.7524 Cl     21  UNL21      -0.1242
    163 C           5.6863    8.5363    7.1560 C.3    21  UNL21       0.0360
    164 C           4.5441    9.0360    8.0239 C.3    21  UNL21       0.0360
    165 H           5.3186    7.9006    6.3444 H      21  UNL21       0.0441
    166 H           6.2220    9.3805    6.7124 H      21  UNL21       0.0441
    167 H           3.8425    9.6239    7.4248 H      21  UNL21       0.0441
    168 H           4.9121    9.6689    8.8375 H      21  UNL21       0.0441
    169 CL          8.2642    0.6121   -2.5073 Cl     22  UNL22      -0.1242
    170 CL          9.6047   -1.6951   -0.5586 Cl     22  UNL22      -0.1242
    171 C           9.8392    0.7830   -1.6956 C.3    22  UNL22       0.0360
    172 C          10.5466   -0.5532   -1.5473 C.3    22  UNL22       0.0360
    173 H           9.6630    1.2485   -0.7208 H      22  UNL22       0.0441
    174 H          10.4452    1.4675   -2.2962 H      22  UNL22       0.0441
    175 H          11.5151   -0.4166   -1.0575 H      22  UNL22       0.0441
    176 H          10.7197   -1.0203   -2.5218 H      22  UNL22       0.0441
    177 CL         10.3935   -1.8039    2.4505 Cl     23  UNL23      -0.1242
    178 CL          7.6146   -0.3310    1.4378 Cl     23  UNL23      -0.1242
    179 C          10.0093   -0.0901    2.7401 C.3    23  UNL23       0.0360
    180 C           8.5155    0.1350    2.9006 C.3    23  UNL23       0.0360
    181 H          10.4092    0.4876    1.9008 H      23  UNL23       0.0441
    182 H          10.5378    0.2158    3.6476 H      23  UNL23       0.0441
    183 H           8.3101    1.1928    3.0893 H      23  UNL23       0.0441
    184 H           8.1150   -0.4452    3.7377 H      23  UNL23       0.0441
    185 CL         10.7253   -1.9452    7.3118 Cl     24  UNL24      -0.1242
    186 CL          7.6769   -2.4576    6.1446 Cl     24  UNL24      -0.1242
    187 C           9.8021   -0.7487    6.3711 C.3    24  UNL24       0.0360
    188 C           8.3082   -0.8631    6.6217 C.3    24  UNL24       0.0360
    189 H          10.0394   -0.9014    5.3135 H      24  UNL24       0.0441
    190 H          10.1598    0.2435    6.6614 H      24  UNL24       0.0441
    191 H           7.7681   -0.1094    6.0414 H      24  UNL24       0.0441
    192 H           8.0714   -0.7139    7.6798 H      24  UNL24       0.0441
    193 CL         10.9254   -1.6452   10.6198 Cl     25  UNL25      -0.1242
    194 CL          7.8080   -2.3011    9.7430 Cl     25  UNL25      -0.1242
    195 C           9.6964   -0.3991   10.2952 C.3    25  UNL25       0.0360
    196 C           8.3022   -0.8675   10.6754 C.3    25  UNL25       0.0360
    197 H           9.7527   -0.1444    9.2321 H      25  UNL25       0.0441
    198 H           9.9684    0.4885   10.8737 H      25  UNL25       0.0441
    199 H           7.5706   -0.0789   10.4771 H      25  UNL25       0.0441
    200 H           8.2468   -1.1254   11.7376 H      25  UNL25       0.0441
    201 CL         11.5556    5.6821   -0.5354 Cl     26  UNL26      -0.1242
    202 CL          8.9154    5.6249   -2.5211 Cl     26  UNL26      -0.1242
    203 C          10.2474    4.4802   -0.4226 C.3    26  UNL26       0.0360
    204 C           9.6398    4.1769   -1.7815 C.3    26  UNL26       0.0360
    205 H           9.4950    4.8706    0.2697 H      26  UNL26       0.0441
    206 H          10.6734    3.5716    0.0129 H      26  UNL26       0.0441
    207 H           8.8487    3.4277   -1.6838 H      26  UNL26       0.0441
    208 H          10.3929    3.7898   -2.4749 H      26  UNL26       0.0441
    209 CL          7.0848    3.9500    4.6098 Cl     27  UNL27      -0.1242
    210 CL         10.0850    2.5658    4.5838 Cl     27  UNL27      -0.1242
    211 C           8.5944    4.8443    4.3097 C.3    27  UNL27       0.0360
    212 C           9.6313    3.9839    3.6081 C.3    27  UNL27       0.0360
    213 H           8.9656    5.2048    5.2742 H      27  UNL27       0.0441
    214 H           8.3441    5.7131    3.6940 H      27  UNL27       0.0441
    215 H          10.5421    4.5616    3.4258 H      27  UNL27       0.0441
    216 H           9.2589    3.6206    2.6452 H      27  UNL27       0.0441
    217 CL         10.7093    2.6322    8.4900 Cl     28  UNL28      -0.1242
    218 CL          7.4751    2.1936    7.9747 Cl     28  UNL28      -0.1242
    219 C           9.6082    3.9068    7.9140 C.3    28  UNL28       0.0360
    220 C           8.2061    3.7381    8.4738 C.3    28  UNL28       0.0360
    221 H           9.6046    3.8747    6.8199 H      28  UNL28       0.0441
    222 H          10.0272    4.8679    8.2260 H      28  UNL28       0.0441
    223 H           7.5555    4.5405    8.1138 H      28  UNL28       0.0441
    224 H           8.2101    3.7667    9.5679 H      28  UNL28       0.0441
    225 CL          8.5645    8.7269   -2.4890 Cl     28  UNL28      -0.1242
    226 CL          7.6584    6.9867    0.1696 Cl     28  UNL28      -0.1242
    227 C           6.8734    8.4134   -2.0297 C.3    28  UNL28       0.0360
    228 C           6.7048    8.3209   -0.5228 C.3    28  UNL28       0.0360
    229 H           6.5610    7.4867   -2.5211 H      28  UNL28       0.0441
    230 H           6.2679    9.2323   -2.4288 H      28  UNL28       0.0441
    231 H           5.6560    8.1404   -0.2695 H      28  UNL28       0.0441
    232 H           7.0205    9.2463   -0.0311 H      28  UNL28       0.0441
    233 CL         10.0430    7.6045    2.9442 Cl     28  UNL28      -0.1242
    234 CL          6.7588    7.9529    2.8415 Cl     28  UNL28      -0.1242
    235 C           9.1858    9.1120    3.3461 C.3    28  UNL28       0.0360
    236 C           7.8224    8.8410    3.9590 C.3    28  UNL28       0.0360
    237 H           9.0975    9.7002    2.4273 H      28  UNL28       0.0441
    238 H           9.8128    9.6685    4.0488 H      28  UNL28       0.0441
    239 H           7.3246    9.7830    4.2067 H      28  UNL28       0.0441
    240 H           7.9105    8.2498    4.8758 H      28  UNL28       0.0441
@<TRIPOS>BOND
     1     1     3    1
     2     2     4    1
     3     3     4    1
     4     3     5    1
     5     3     6    1
     6     4     7    1
     7     4     8    1
     8     9    11    1
     9    10    12    1
    10    11    12    1
    11    11    13    1
    12    11    14    1
    13    12    15    1
    14    12    16    1
    15    17    19    1
    16    18    20    1
    17    19    20    1
    18    19    21    1
    19    19    22    1
    20    20    23    1
    21    20    24    1
    22    25    27    1
    23    26    28    1
    24    27    28    1
    25    27    29    1
    26    27    30    1
    27    28    31    1
    28    28    32    1
    29    33    35    1
    30    34    36    1
    31    35    36    1
    32    35    37    1
    33    35    38    1
    34    36    39    1
    35    36    40    1
    36    41    43    1
    37    42    44    1
    38    43    44    1
    39    43    45    1
    40    43    46    1
    41    44    47    1
    42    44    48    1
    43    49    51    1
    44    50    52    1
    45    51    52    1
    46    51    53    1
    47    51    54    1
    48    52    55    1
    49    52    56    1
    50    57    59    1
    51    58    60    1
    52    59    60    1
    53    59    61    1
    54    59    62    1
    55    60    63    1
    56    60    64    1
    57    65    67    1
    58    66    68    1
    59    67    68    1
    60    67    69    1
    61    67    70    1
    62    68    71    1
    63    68    72    1
    64    73    75    1
    65    74    76    1
    66    75    76    1
    67    75    77    1
    68    75    78    1
    69    76    79    1
    70    76    80    1
    71    81    83    1
    72    82    84    1
    73    83    84    1
    74    83    85    1
    75    83    86    1
    76    84    87    1
    77    84    88    1
    78    89    91    1
    79    90    92    1
    80    91    92    1
    81    91    93    1
    82    91    94    1
    83    92    95    1
    84    92    96    1
    85    97    99    1
    86    98   100    1
    87    99   100    1
    88    99   101    1
    89    99   102    1
    90   100   103    1
    91   100   104    1
    92   105   107    1
    93   106   108    1
    94   107   108    1
    95   107   109    1
    96   107   110    1
    97   108   111    1
    98   108   112    1
    99   113   115    1
   100   114   116    1
   101   115   116    1
   102   115   117    1
   103   115   118    1
   104   116   119    1
   105   116   120    1
   106   121   123    1
   107   122   124    1
   108   123   124    1
   109   123   125    1
   110   123   126    1
   111   124   127    1
   112   124   128    1
   113   129   131    1
   114   130   132    1
   115   131   132    1
   116   131   133    1
   117   131   134    1
   118   132   135    1
   119   132   136    1
   120   137   139    1
   121   138   140    1
   122   139   140    1
   123   139   141    1
   124   139   142    1
   125   140   143    1
   126   140   144    1
   127   145   147    1
   128   146   148    1
   129   147   148    1
   130   147   149    1
   131   147   150    1
   132   148   151    1
   133   148   152    1
   134   153   155    1
   135   154   156    1
   136   155   156    1
   137   155   157    1
   138   155   158    1
   139   156   159    1
   140   156   160    1
   141   161   163    1
   142   162   164    1
   143   163   164    1
   144   163   165    1
   145   163   166    1
   146   164   167    1
   147   164   168    1
   148   169   171    1
   149   170   172    1
   150   171   172    1
   151   171   173    1
   152   171   174    1
   153   172   175    1
   154   172   176    1
   155   177   179    1
   156   178   180    1
   157   179   180    1
   158   179   181    1
   159   179   182    1
   160   180   183    1
   161   180   184    1
   162   185   187    1
   163   186   188    1
   164   187   188    1
   165   187   189    1
   166   187   190    1
   167   188   191    1
   168   188   192    1
   169   193   195    1
   170   194   196    1
   171   195   196    1
   172   195   197    1
   173   195   198    1
   174   196   199    1
   175   196   200    1
   176   201   203    1
   177   202   204    1
   178   203   204    1
   179   203   205    1
   180   203   206    1
   181   204   207    1
   182   204   208    1
   183   209   211    1
   184   210   212    1
   185   211   212    1
   186   211   213    1
   187   211   214    1
   188   212   215    1
   189   212   216    1
   190   217   219    1
   191   218   220    1
   192   219   220    1
   193   219   221    1
   194   219   222    1
   195   220   223    1
   196   220   224    1
   197   225   227    1
   198   226   228    1
   199   227   228    1
   200   227   229    1
   201   227   230    1
   202   228   231    1
   203   228   232    1
   204   233   235    1
   205   234   236    1
   206   235   236    1
   207   235   237    1
   208   235   238    1
   209   236   239    1
   210   236   240    1
