@<TRIPOS>MOLECULE
*****
 375 250 0 0 0
SMALL
GASTEIGER

@<TRIPOS>ATOM
      1 O           1.5200    1.5200    1.8169 O.3     1  HOH1       -0.4105
      2 H           1.7974    2.4129    2.0713 H       0  HOH0        0.2052
      3 H           2.1268    1.2817    1.1000 H       0  HOH0        0.2052
      4 O           1.5200    1.5200    5.1538 O.3     2  HOH2       -0.4105
      5 H           1.7974    2.4129    5.4082 H       0  HOH0        0.2052
      6 H           2.1268    1.2817    4.4369 H       0  HOH0        0.2052
      7 O           1.5200    1.5200    8.4907 O.3     3  HOH3       -0.4105
      8 H           1.7974    2.4129    8.7451 H       0  HOH0        0.2052
      9 H           2.1268    1.2817    7.7738 H       0  HOH0        0.2052
     10 O           1.5200    1.5200   11.8276 O.3     4  HOH4       -0.4105
     11 H           1.7974    2.4129   12.0820 H       0  HOH0        0.2052
     12 H           2.1268    1.2817   11.1107 H       0  HOH0        0.2052
     13 O           1.5200    1.5200   15.1645 O.3     5  HOH5       -0.4105
     14 H           1.7974    2.4129   15.4189 H       0  HOH0        0.2052
     15 H           2.1268    1.2817   14.4476 H       0  HOH0        0.2052
     16 O           1.5200    5.0329    1.8169 O.3     6  HOH6       -0.4105
     17 H           1.7974    5.9258    2.0713 H       0  HOH0        0.2052
     18 H           2.1268    4.7946    1.1000 H       0  HOH0        0.2052
     19 O           1.5200    5.0329    5.1538 O.3     7  HOH7       -0.4105
     20 H           1.7974    5.9258    5.4082 H       0  HOH0        0.2052
     21 H           2.1268    4.7946    4.4369 H       0  HOH0        0.2052
     22 O           1.5200    5.0329    8.4907 O.3     8  HOH8       -0.4105
     23 H           1.7974    5.9258    8.7451 H       0  HOH0        0.2052
     24 H           2.1268    4.7946    7.7738 H       0  HOH0        0.2052
     25 O           1.5200    5.0329   11.8276 O.3     9  HOH9       -0.4105
     26 H           1.7974    5.9258   12.0820 H       0  HOH0        0.2052
     27 H           2.1268    4.7946   11.1107 H       0  HOH0        0.2052
     28 O           1.5200    5.0329   15.1645 O.3    10  HOH10      -0.4105
     29 H           1.7974    5.9258   15.4189 H       0  HOH0        0.2052
     30 H           2.1268    4.7946   14.4476 H       0  HOH0        0.2052
     31 O           1.5200    8.5458    1.8169 O.3    11  HOH11      -0.4105
     32 H           1.7974    9.4387    2.0713 H       0  HOH0        0.2052
     33 H           2.1268    8.3075    1.1000 H       0  HOH0        0.2052
     34 O           1.5200    8.5458    5.1538 O.3    12  HOH12      -0.4105
     35 H           1.7974    9.4387    5.4082 H       0  HOH0        0.2052
     36 H           2.1268    8.3075    4.4369 H       0  HOH0        0.2052
     37 O           1.5200    8.5458    8.4907 O.3    13  HOH13      -0.4105
     38 H           1.7974    9.4387    8.7451 H       0  HOH0        0.2052
     39 H           2.1268    8.3075    7.7738 H       0  HOH0        0.2052
     40 O           1.5200    8.5458   11.8276 O.3    14  HOH14      -0.4105
     41 H           1.7974    9.4387   12.0820 H       0  HOH0        0.2052
     42 H           2.1268    8.3075   11.1107 H       0  HOH0        0.2052
     43 O           1.5200    8.5458   15.1645 O.3    15  HOH15      -0.4105
     44 H           1.7974    9.4387   15.4189 H       0  HOH0        0.2052
     45 H           2.1268    8.3075   14.4476 H       0  HOH0        0.2052
     46 O           1.5200   12.0587    1.8169 O.3    16  HOH16      -0.4105
     47 H           1.7974   12.9516    2.0713 H       0  HOH0        0.2052
     48 H           2.1268   11.8204    1.1000 H       0  HOH0        0.2052
     49 O           1.5200   12.0587    5.1538 O.3    17  HOH17      -0.4105
     50 H           1.7974   12.9516    5.4082 H       0  HOH0        0.2052
     51 H           2.1268   11.8204    4.4369 H       0  HOH0        0.2052
     52 O           1.5200   12.0587    8.4907 O.3    18  HOH18      -0.4105
     53 H           1.7974   12.9516    8.7451 H       0  HOH0        0.2052
     54 H           2.1268   11.8204    7.7738 H       0  HOH0        0.2052
     55 O           1.5200   12.0587   11.8276 O.3    19  HOH19      -0.4105
     56 H           1.7974   12.9516   12.0820 H       0  HOH0        0.2052
     57 H           2.1268   11.8204   11.1107 H       0  HOH0        0.2052
     58 O           1.5200   12.0587   15.1645 O.3    20  HOH20      -0.4105
     59 H           1.7974   12.9516   15.4189 H       0  HOH0        0.2052
     60 H           2.1268   11.8204   14.4476 H       0  HOH0        0.2052
     61 O           1.5200   15.5716    1.8169 O.3    21  HOH21      -0.4105
     62 H           1.7974   16.4645    2.0713 H       0  HOH0        0.2052
     63 H           2.1268   15.3333    1.1000 H       0  HOH0        0.2052
     64 O           1.5200   15.5716    5.1538 O.3    22  HOH22      -0.4105
     65 H           1.7974   16.4645    5.4082 H       0  HOH0        0.2052
     66 H           2.1268   15.3333    4.4369 H       0  HOH0        0.2052
     67 O           1.5200   15.5716    8.4907 O.3    23  HOH23      -0.4105
     68 H           1.7974   16.4645    8.7451 H       0  HOH0        0.2052
     69 H           2.1268   15.3333    7.7738 H       0  HOH0        0.2052
     70 O           1.5200   15.5716   11.8276 O.3    24  HOH24      -0.4105
     71 H           1.7974   16.4645   12.0820 H       0  HOH0        0.2052
     72 H           2.1268   15.3333   11.1107 H       0  HOH0        0.2052
     73 O           1.5200   15.5716   15.1645 O.3    25  HOH25      -0.4105
     74 H           1.7974   16.4645   15.4189 H       0  HOH0        0.2052
     75 H           2.1268   15.3333   14.4476 H       0  HOH0        0.2052
     76 O           4.7468    1.5200    1.8169 O.3    26  HOH26      -0.4105
     77 H           5.0242    2.4129    2.0713 H       0  HOH0        0.2052
     78 H           5.3536    1.2817    1.1000 H       0  HOH0        0.2052
     79 O           4.7468    1.5200    5.1538 O.3    27  HOH27      -0.4105
     80 H           5.0242    2.4129    5.4082 H       0  HOH0        0.2052
     81 H           5.3536    1.2817    4.4369 H       0  HOH0        0.2052
     82 O           4.7468    1.5200    8.4907 O.3    28  HOH28      -0.4105
     83 H           5.0242    2.4129    8.7451 H       0  HOH0        0.2052
     84 H           5.3536    1.2817    7.7738 H       0  HOH0        0.2052
     85 O           4.7468    1.5200   11.8276 O.3    29  HOH29      -0.4105
     86 H           5.0242    2.4129   12.0820 H       0  HOH0        0.2052
     87 H           5.3536    1.2817   11.1107 H       0  HOH0        0.2052
     88 O           4.7468    1.5200   15.1645 O.3    30  HOH30      -0.4105
     89 H           5.0242    2.4129   15.4189 H       0  HOH0        0.2052
     90 H           5.3536    1.2817   14.4476 H       0  HOH0        0.2052
     91 O           4.7468    5.0329    1.8169 O.3    31  HOH31      -0.4105
     92 H           5.0242    5.9258    2.0713 H       0  HOH0        0.2052
     93 H           5.3536    4.7946    1.1000 H       0  HOH0        0.2052
     94 O           4.7468    5.0329    5.1538 O.3    32  HOH32      -0.4105
     95 H           5.0242    5.9258    5.4082 H       0  HOH0        0.2052
     96 H           5.3536    4.7946    4.4369 H       0  HOH0        0.2052
     97 O           4.7468    5.0329    8.4907 O.3    33  HOH33      -0.4105
     98 H           5.0242    5.9258    8.7451 H       0  HOH0        0.2052
     99 H           5.3536    4.7946    7.7738 H       0  HOH0        0.2052
    100 O           4.7468    5.0329   11.8276 O.3    34  HOH34      -0.4105
    101 H           5.0242    5.9258   12.0820 H       0  HOH0        0.2052
    102 H           5.3536    4.7946   11.1107 H       0  HOH0        0.2052
    103 O           4.7468    5.0329   15.1645 O.3    35  HOH35      -0.4105
    104 H           5.0242    5.9258   15.4189 H       0  HOH0        0.2052
    105 H           5.3536    4.7946   14.4476 H       0  HOH0        0.2052
    106 O           4.7468    8.5458    1.8169 O.3    36  HOH36      -0.4105
    107 H           5.0242    9.4387    2.0713 H       0  HOH0        0.2052
    108 H           5.3536    8.3075    1.1000 H       0  HOH0        0.2052
    109 O           4.7468    8.5458    5.1538 O.3    37  HOH37      -0.4105
    110 H           5.0242    9.4387    5.4082 H       0  HOH0        0.2052
    111 H           5.3536    8.3075    4.4369 H       0  HOH0        0.2052
    112 O           4.7468    8.5458    8.4907 O.3    38  HOH38      -0.4105
    113 H           5.0242    9.4387    8.7451 H       0  HOH0        0.2052
    114 H           5.3536    8.3075    7.7738 H       0  HOH0        0.2052
    115 O           4.7468    8.5458   11.8276 O.3    39  HOH39      -0.4105
    116 H           5.0242    9.4387   12.0820 H       0  HOH0        0.2052
    117 H           5.3536    8.3075   11.1107 H       0  HOH0        0.2052
    118 O           4.7468    8.5458   15.1645 O.3    40  HOH40      -0.4105
    119 H           5.0242    9.4387   15.4189 H       0  HOH0        0.2052
    120 H           5.3536    8.3075   14.4476 H       0  HOH0        0.2052
    121 O           4.7468   12.0587    1.8169 O.3    41  HOH41      -0.4105
    122 H           5.0242   12.9516    2.0713 H       0  HOH0        0.2052
    123 H           5.3536   11.8204    1.1000 H       0  HOH0        0.2052
    124 O           4.7468   12.0587    5.1538 O.3    42  HOH42      -0.4105
    125 H           5.0242   12.9516    5.4082 H       0  HOH0        0.2052
    126 H           5.3536   11.8204    4.4369 H       0  HOH0        0.2052
    127 O           4.7468   12.0587    8.4907 O.3    43  HOH43      -0.4105
    128 H           5.0242   12.9516    8.7451 H       0  HOH0        0.2052
    129 H           5.3536   11.8204    7.7738 H       0  HOH0        0.2052
    130 O           4.7468   12.0587   11.8276 O.3    44  HOH44      -0.4105
    131 H           5.0242   12.9516   12.0820 H       0  HOH0        0.2052
    132 H           5.3536   11.8204   11.1107 H       0  HOH0        0.2052
    133 O           4.7468   12.0587   15.1645 O.3    45  HOH45      -0.4105
    134 H           5.0242   12.9516   15.4189 H       0  HOH0        0.2052
    135 H           5.3536   11.8204   14.4476 H       0  HOH0        0.2052
    136 O           4.7468   15.5716    1.8169 O.3    46  HOH46      -0.4105
    137 H           5.0242   16.4645    2.0713 H       0  HOH0        0.2052
    138 H           5.3536   15.3333    1.1000 H       0  HOH0        0.2052
    139 O           4.7468   15.5716    5.1538 O.3    47  HOH47      -0.4105
    140 H           5.0242   16.4645    5.4082 H       0  HOH0        0.2052
    141 H           5.3536   15.3333    4.4369 H       0  HOH0        0.2052
    142 O           4.7468   15.5716    8.4907 O.3    48  HOH48      -0.4105
    143 H           5.0242   16.4645    8.7451 H       0  HOH0        0.2052
    144 H           5.3536   15.3333    7.7738 H       0  HOH0        0.2052
    145 O           4.7468   15.5716   11.8276 O.3    49  HOH49      -0.4105
    146 H           5.0242   16.4645   12.0820 H       0  HOH0        0.2052
    147 H           5.3536   15.3333   11.1107 H       0  HOH0        0.2052
    148 O           4.7468   15.5716   15.1645 O.3    50  HOH50      -0.4105
    149 H           5.0242   16.4645   15.4189 H       0  HOH0        0.2052
    150 H           5.3536   15.3333   14.4476 H       0  HOH0        0.2052
    151 O           7.9736    1.5200    1.8169 O.3    51  HOH51      -0.4105
    152 H           8.2510    2.4129    2.0713 H       0  HOH0        0.2052
    153 H           8.5804    1.2817    1.1000 H       0  HOH0        0.2052
    154 O           7.9736    1.5200    5.1538 O.3    52  HOH52      -0.4105
    155 H           8.2510    2.4129    5.4082 H       0  HOH0        0.2052
    156 H           8.5804    1.2817    4.4369 H       0  HOH0        0.2052
    157 O           7.9736    1.5200    8.4907 O.3    53  HOH53      -0.4105
    158 H           8.2510    2.4129    8.7451 H       0  HOH0        0.2052
    159 H           8.5804    1.2817    7.7738 H       0  HOH0        0.2052
    160 O           7.9736    1.5200   11.8276 O.3    54  HOH54      -0.4105
    161 H           8.2510    2.4129   12.0820 H       0  HOH0        0.2052
    162 H           8.5804    1.2817   11.1107 H       0  HOH0        0.2052
    163 O           7.9736    1.5200   15.1645 O.3    55  HOH55      -0.4105
    164 H           8.2510    2.4129   15.4189 H       0  HOH0        0.2052
    165 H           8.5804    1.2817   14.4476 H       0  HOH0        0.2052
    166 O           7.9736    5.0329    1.8169 O.3    56  HOH56      -0.4105
    167 H           8.2510    5.9258    2.0713 H       0  HOH0        0.2052
    168 H           8.5804    4.7946    1.1000 H       0  HOH0        0.2052
    169 O           7.9736    5.0329    5.1538 O.3    57  HOH57      -0.4105
    170 H           8.2510    5.9258    5.4082 H       0  HOH0        0.2052
    171 H           8.5804    4.7946    4.4369 H       0  HOH0        0.2052
    172 O           7.9736    5.0329    8.4907 O.3    58  HOH58      -0.4105
    173 H           8.2510    5.9258    8.7451 H       0  HOH0        0.2052
    174 H           8.5804    4.7946    7.7738 H       0  HOH0        0.2052
    175 O           7.9736    5.0329   11.8276 O.3    59  HOH59      -0.4105
    176 H           8.2510    5.9258   12.0820 H       0  HOH0        0.2052
    177 H           8.5804    4.7946   11.1107 H       0  HOH0        0.2052
    178 O           7.9736    5.0329   15.1645 O.3    60  HOH60      -0.4105
    179 H           8.2510    5.9258   15.4189 H       0  HOH0        0.2052
    180 H           8.5804    4.7946   14.4476 H       0  HOH0        0.2052
    181 O           7.9736    8.5458    1.8169 O.3    61  HOH61      -0.4105
    182 H           8.2510    9.4387    2.0713 H       0  HOH0        0.2052
    183 H           8.5804    8.3075    1.1000 H       0  HOH0        0.2052
    184 O           7.9736    8.5458    5.1538 O.3    62  HOH62      -0.4105
    185 H           8.2510    9.4387    5.4082 H       0  HOH0        0.2052
    186 H           8.5804    8.3075    4.4369 H       0  HOH0        0.2052
    187 O           7.9736    8.5458    8.4907 O.3    63  HOH63      -0.4105
    188 H           8.2510    9.4387    8.7451 H       0  HOH0        0.2052
    189 H           8.5804    8.3075    7.7738 H       0  HOH0        0.2052
    190 O           7.9736    8.5458   11.8276 O.3    64  HOH64      -0.4105
    191 H           8.2510    9.4387   12.0820 H       0  HOH0        0.2052
    192 H           8.5804    8.3075   11.1107 H       0  HOH0        0.2052
    193 O           7.9736    8.5458   15.1645 O.3    65  HOH65      -0.4105
    194 H           8.2510    9.4387   15.4189 H       0  HOH0        0.2052
    195 H           8.5804    8.3075   14.4476 H       0  HOH0        0.2052
    196 O           7.9736   12.0587    1.8169 O.3    66  HOH66      -0.4105
    197 H           8.2510   12.9516    2.0713 H       0  HOH0        0.2052
    198 H           8.5804   11.8204    1.1000 H       0  HOH0        0.2052
    199 O           7.9736   12.0587    5.1538 O.3    67  HOH67      -0.4105
    200 H           8.2510   12.9516    5.4082 H       0  HOH0        0.2052
    201 H           8.5804   11.8204    4.4369 H       0  HOH0        0.2052
    202 O           7.9736   12.0587    8.4907 O.3    68  HOH68      -0.4105
    203 H           8.2510   12.9516    8.7451 H       0  HOH0        0.2052
    204 H           8.5804   11.8204    7.7738 H       0  HOH0        0.2052
    205 O           7.9736   12.0587   11.8276 O.3    69  HOH69      -0.4105
    206 H           8.2510   12.9516   12.0820 H       0  HOH0        0.2052
    207 H           8.5804   11.8204   11.1107 H       0  HOH0        0.2052
    208 O           7.9736   12.0587   15.1645 O.3    70  HOH70      -0.4105
    209 H           8.2510   12.9516   15.4189 H       0  HOH0        0.2052
    210 H           8.5804   11.8204   14.4476 H       0  HOH0        0.2052
    211 O           7.9736   15.5716    1.8169 O.3    71  HOH71      -0.4105
    212 H           8.2510   16.4645    2.0713 H       0  HOH0        0.2052
    213 H           8.5804   15.3333    1.1000 H       0  HOH0        0.2052
    214 O           7.9736   15.5716    5.1538 O.3    72  HOH72      -0.4105
    215 H           8.2510   16.4645    5.4082 H       0  HOH0        0.2052
    216 H           8.5804   15.3333    4.4369 H       0  HOH0        0.2052
    217 O           7.9736   15.5716    8.4907 O.3    73  HOH73      -0.4105
    218 H           8.2510   16.4645    8.7451 H       0  HOH0        0.2052
    219 H           8.5804   15.3333    7.7738 H       0  HOH0        0.2052
    220 O           7.9736   15.5716   11.8276 O.3    74  HOH74      -0.4105
    221 H           8.2510   16.4645   12.0820 H       0  HOH0        0.2052
    222 H           8.5804   15.3333   11.1107 H       0  HOH0        0.2052
    223 O           7.9736   15.5716   15.1645 O.3    75  HOH75      -0.4105
    224 H           8.2510   16.4645   15.4189 H       0  HOH0        0.2052
    225 H           8.5804   15.3333   14.4476 H       0  HOH0        0.2052
    226 O          11.2004    1.5200    1.8169 O.3    76  HOH76      -0.4105
    227 H          11.4778    2.4129    2.0713 H       0  HOH0        0.2052
    228 H          11.8072    1.2817    1.1000 H       0  HOH0        0.2052
    229 O          11.2004    1.5200    5.1538 O.3    77  HOH77      -0.4105
    230 H          11.4778    2.4129    5.4082 H       0  HOH0        0.2052
    231 H          11.8072    1.2817    4.4369 H       0  HOH0        0.2052
    232 O          11.2004    1.5200    8.4907 O.3    78  HOH78      -0.4105
    233 H          11.4778    2.4129    8.7451 H       0  HOH0        0.2052
    234 H          11.8072    1.2817    7.7738 H       0  HOH0        0.2052
    235 O          11.2004    1.5200   11.8276 O.3    79  HOH79      -0.4105
    236 H          11.4778    2.4129   12.0820 H       0  HOH0        0.2052
    237 H          11.8072    1.2817   11.1107 H       0  HOH0        0.2052
    238 O          11.2004    1.5200   15.1645 O.3    80  HOH80      -0.4105
    239 H          11.4778    2.4129   15.4189 H       0  HOH0        0.2052
    240 H          11.8072    1.2817   14.4476 H       0  HOH0        0.2052
    241 O          11.2004    5.0329    1.8169 O.3    81  HOH81      -0.4105
    242 H          11.4778    5.9258    2.0713 H       0  HOH0        0.2052
    243 H          11.8072    4.7946    1.1000 H       0  HOH0        0.2052
    244 O          11.2004    5.0329    5.1538 O.3    82  HOH82      -0.4105
    245 H          11.4778    5.9258    5.4082 H       0  HOH0        0.2052
    246 H          11.8072    4.7946    4.4369 H       0  HOH0        0.2052
    247 O          11.2004    5.0329    8.4907 O.3    83  HOH83      -0.4105
    248 H          11.4778    5.9258    8.7451 H       0  HOH0        0.2052
    249 H          11.8072    4.7946    7.7738 H       0  HOH0        0.2052
    250 O          11.2004    5.0329   11.8276 O.3    84  HOH84      -0.4105
    251 H          11.4778    5.9258   12.0820 H       0  HOH0        0.2052
    252 H          11.8072    4.7946   11.1107 H       0  HOH0        0.2052
    253 O          11.2004    5.0329   15.1645 O.3    85  HOH85      -0.4105
    254 H          11.4778    5.9258   15.4189 H       0  HOH0        0.2052
    255 H          11.8072    4.7946   14.4476 H       0  HOH0        0.2052
    256 O          11.2004    8.5458    1.8169 O.3    86  HOH86      -0.4105
    257 H          11.4778    9.4387    2.0713 H       0  HOH0        0.2052
    258 H          11.8072    8.3075    1.1000 H       0  HOH0        0.2052
    259 O          11.2004    8.5458    5.1538 O.3    87  HOH87      -0.4105
    260 H          11.4778    9.4387    5.4082 H       0  HOH0        0.2052
    261 H          11.8072    8.3075    4.4369 H       0  HOH0        0.2052
    262 O          11.2004    8.5458    8.4907 O.3    88  HOH88      -0.4105
    263 H          11.4778    9.4387    8.7451 H       0  HOH0        0.2052
    264 H          11.8072    8.3075    7.7738 H       0  HOH0        0.2052
    265 O          11.2004    8.5458   11.8276 O.3    89  HOH89      -0.4105
    266 H          11.4778    9.4387   12.0820 H       0  HOH0        0.2052
    267 H          11.8072    8.3075   11.1107 H       0  HOH0        0.2052
    268 O          11.2004    8.5458   15.1645 O.3    90  HOH90      -0.4105
    269 H          11.4778    9.4387   15.4189 H       0  HOH0        0.2052
    270 H          11.8072    8.3075   14.4476 H       0  HOH0        0.2052
    271 O          11.2004   12.0587    1.8169 O.3    91  HOH91      -0.4105
    272 H          11.4778   12.9516    2.0713 H       0  HOH0        0.2052
    273 H          11.8072   11.8204    1.1000 H       0  HOH0        0.2052
    274 O          11.2004   12.0587    5.1538 O.3    92  HOH92      -0.4105
    275 H          11.4778   12.9516    5.4082 H       0  HOH0        0.2052
    276 H          11.8072   11.8204    4.4369 H       0  HOH0        0.2052
    277 O          11.2004   12.0587    8.4907 O.3    93  HOH93      -0.4105
    278 H          11.4778   12.9516    8.7451 H       0  HOH0        0.2052
    279 H          11.8072   11.8204    7.7738 H       0  HOH0        0.2052
    280 O          11.2004   12.0587   11.8276 O.3    94  HOH94      -0.4105
    281 H          11.4778   12.9516   12.0820 H       0  HOH0        0.2052
    282 H          11.8072   11.8204   11.1107 H       0  HOH0        0.2052
    283 O          11.2004   12.0587   15.1645 O.3    95  HOH95      -0.4105
    284 H          11.4778   12.9516   15.4189 H       0  HOH0        0.2052
    285 H          11.8072   11.8204   14.4476 H       0  HOH0        0.2052
    286 O          11.2004   15.5716    1.8169 O.3    96  HOH96      -0.4105
    287 H          11.4778   16.4645    2.0713 H       0  HOH0        0.2052
    288 H          11.8072   15.3333    1.1000 H       0  HOH0        0.2052
    289 O          11.2004   15.5716    5.1538 O.3    97  HOH97      -0.4105
    290 H          11.4778   16.4645    5.4082 H       0  HOH0        0.2052
    291 H          11.8072   15.3333    4.4369 H       0  HOH0        0.2052
    292 O          11.2004   15.5716    8.4907 O.3    98  HOH98      -0.4105
    293 H          11.4778   16.4645    8.7451 H       0  HOH0        0.2052
    294 H          11.8072   15.3333    7.7738 H       0  HOH0        0.2052
    295 O          11.2004   15.5716   11.8276 O.3    99  HOH99      -0.4105
    296 H          11.4778   16.4645   12.0820 H       0  HOH0        0.2052
    297 H          11.8072   15.3333   11.1107 H       0  HOH0        0.2052
    298 O          11.2004   15.5716   15.1645 O.3   100  HOH100     -0.4105
    299 H          11.4778   16.4645   15.4189 H       0  HOH0        0.2052
    300 H          11.8072   15.3333   14.4476 H       0  HOH0        0.2052
    301 O          14.4272    1.5200    1.8169 O.3   101  HOH101     -0.4105
    302 H          14.7046    2.4129    2.0713 H       0  HOH0        0.2052
    303 H          15.0340    1.2817    1.1000 H       0  HOH0        0.2052
    304 O          14.4272    1.5200    5.1538 O.3   102  HOH102     -0.4105
    305 H          14.7046    2.4129    5.4082 H       0  HOH0        0.2052
    306 H          15.0340    1.2817    4.4369 H       0  HOH0        0.2052
    307 O          14.4272    1.5200    8.4907 O.3   103  HOH103     -0.4105
    308 H          14.7046    2.4129    8.7451 H       0  HOH0        0.2052
    309 H          15.0340    1.2817    7.7738 H       0  HOH0        0.2052
    310 O          14.4272    1.5200   11.8276 O.3   104  HOH104     -0.4105
    311 H          14.7046    2.4129   12.0820 H       0  HOH0        0.2052
    312 H          15.0340    1.2817   11.1107 H       0  HOH0        0.2052
    313 O          14.4272    1.5200   15.1645 O.3   105  HOH105     -0.4105
    314 H          14.7046    2.4129   15.4189 H       0  HOH0        0.2052
    315 H          15.0340    1.2817   14.4476 H       0  HOH0        0.2052
    316 O          14.4272    5.0329    1.8169 O.3   106  HOH106     -0.4105
    317 H          14.7046    5.9258    2.0713 H       0  HOH0        0.2052
    318 H          15.0340    4.7946    1.1000 H       0  HOH0        0.2052
    319 O          14.4272    5.0329    5.1538 O.3   107  HOH107     -0.4105
    320 H          14.7046    5.9258    5.4082 H       0  HOH0        0.2052
    321 H          15.0340    4.7946    4.4369 H       0  HOH0        0.2052
    322 O          14.4272    5.0329    8.4907 O.3   108  HOH108     -0.4105
    323 H          14.7046    5.9258    8.7451 H       0  HOH0        0.2052
    324 H          15.0340    4.7946    7.7738 H       0  HOH0        0.2052
    325 O          14.4272    5.0329   11.8276 O.3   109  HOH109     -0.4105
    326 H          14.7046    5.9258   12.0820 H       0  HOH0        0.2052
    327 H          15.0340    4.7946   11.1107 H       0  HOH0        0.2052
    328 O          14.4272    5.0329   15.1645 O.3   110  HOH110     -0.4105
    329 H          14.7046    5.9258   15.4189 H       0  HOH0        0.2052
    330 H          15.0340    4.7946   14.4476 H       0  HOH0        0.2052
    331 O          14.4272    8.5458    1.8169 O.3   111  HOH111     -0.4105
    332 H          14.7046    9.4387    2.0713 H       0  HOH0        0.2052
    333 H          15.0340    8.3075    1.1000 H       0  HOH0        0.2052
    334 O          14.4272    8.5458    5.1538 O.3   112  HOH112     -0.4105
    335 H          14.7046    9.4387    5.4082 H       0  HOH0        0.2052
    336 H          15.0340    8.3075    4.4369 H       0  HOH0        0.2052
    337 O          14.4272    8.5458    8.4907 O.3   113  HOH113     -0.4105
    338 H          14.7046    9.4387    8.7451 H       0  HOH0        0.2052
    339 H          15.0340    8.3075    7.7738 H       0  HOH0        0.2052
    340 O          14.4272    8.5458   11.8276 O.3   114  HOH114     -0.4105
    341 H          14.7046    9.4387   12.0820 H       0  HOH0        0.2052
    342 H          15.0340    8.3075   11.1107 H       0  HOH0        0.2052
    343 O          14.4272    8.5458   15.1645 O.3   115  HOH115     -0.4105
    344 H          14.7046    9.4387   15.4189 H       0  HOH0        0.2052
    345 H          15.0340    8.3075   14.4476 H       0  HOH0        0.2052
    346 O          14.4272   12.0587    1.8169 O.3   116  HOH116     -0.4105
    347 H          14.7046   12.9516    2.0713 H       0  HOH0        0.2052
    348 H          15.0340   11.8204    1.1000 H       0  HOH0        0.2052
    349 O          14.4272   12.0587    5.1538 O.3   117  HOH117     -0.4105
    350 H          14.7046   12.9516    5.4082 H       0  HOH0        0.2052
    351 H          15.0340   11.8204    4.4369 H       0  HOH0        0.2052
    352 O          14.4272   12.0587    8.4907 O.3   118  HOH118     -0.4105
    353 H          14.7046   12.9516    8.7451 H       0  HOH0        0.2052
    354 H          15.0340   11.8204    7.7738 H       0  HOH0        0.2052
    355 O          14.4272   12.0587   11.8276 O.3   119  HOH119     -0.4105
    356 H          14.7046   12.9516   12.0820 H       0  HOH0        0.2052
    357 H          15.0340   11.8204   11.1107 H       0  HOH0        0.2052
    358 O          14.4272   12.0587   15.1645 O.3   120  HOH120     -0.4105
    359 H          14.7046   12.9516   15.4189 H       0  HOH0        0.2052
    360 H          15.0340   11.8204   14.4476 H       0  HOH0        0.2052
    361 O          14.4272   15.5716    1.8169 O.3   121  HOH121     -0.4105
    362 H          14.7046   16.4645    2.0713 H       0  HOH0        0.2052
    363 H          15.0340   15.3333    1.1000 H       0  HOH0        0.2052
    364 O          14.4272   15.5716    5.1538 O.3   122  HOH122     -0.4105
    365 H          14.7046   16.4645    5.4082 H       0  HOH0        0.2052
    366 H          15.0340   15.3333    4.4369 H       0  HOH0        0.2052
    367 O          14.4272   15.5716    8.4907 O.3   123  HOH123     -0.4105
    368 H          14.7046   16.4645    8.7451 H       0  HOH0        0.2052
    369 H          15.0340   15.3333    7.7738 H       0  HOH0        0.2052
    370 O          14.4272   15.5716   11.8276 O.3   124  HOH124     -0.4105
    371 H          14.7046   16.4645   12.0820 H       0  HOH0        0.2052
    372 H          15.0340   15.3333   11.1107 H       0  HOH0        0.2052
    373 O          14.4272   15.5716   15.1645 O.3   125  HOH125     -0.4105
    374 H          14.7046   16.4645   15.4189 H       0  HOH0        0.2052
    375 H          15.0340   15.3333   14.4476 H       0  HOH0        0.2052
@<TRIPOS>BOND
     1     1     2    1
     2     1     3    1
     3     4     5    1
     4     4     6    1
     5     7     8    1
     6     7     9    1
     7    10    11    1
     8    10    12    1
     9    13    14    1
    10    13    15    1
    11    16    17    1
    12    16    18    1
    13    19    20    1
    14    19    21    1
    15    22    23    1
    16    22    24    1
    17    25    26    1
    18    25    27    1
    19    28    29    1
    20    28    30    1
    21    31    32    1
    22    31    33    1
    23    34    35    1
    24    34    36    1
    25    37    38    1
    26    37    39    1
    27    40    41    1
    28    40    42    1
    29    43    44    1
    30    43    45    1
    31    46    47    1
    32    46    48    1
    33    49    50    1
    34    49    51    1
    35    52    53    1
    36    52    54    1
    37    55    56    1
    38    55    57    1
    39    58    59    1
    40    58    60    1
    41    61    62    1
    42    61    63    1
    43    64    65    1
    44    64    66    1
    45    67    68    1
    46    67    69    1
    47    70    71    1
    48    70    72    1
    49    73    74    1
    50    73    75    1
    51    76    77    1
    52    76    78    1
    53    79    80    1
    54    79    81    1
    55    82    83    1
    56    82    84    1
    57    85    86    1
    58    85    87    1
    59    88    89    1
    60    88    90    1
    61    91    92    1
    62    91    93    1
    63    94    95    1
    64    94    96    1
    65    97    98    1
    66    97    99    1
    67   100   101    1
    68   100   102    1
    69   103   104    1
    70   103   105    1
    71   106   107    1
    72   106   108    1
    73   109   110    1
    74   109   111    1
    75   112   113    1
    76   112   114    1
    77   115   116    1
    78   115   117    1
    79   118   119    1
    80   118   120    1
    81   121   122    1
    82   121   123    1
    83   124   125    1
    84   124   126    1
    85   127   128    1
    86   127   129    1
    87   130   131    1
    88   130   132    1
    89   133   134    1
    90   133   135    1
    91   136   137    1
    92   136   138    1
    93   139   140    1
    94   139   141    1
    95   142   143    1
    96   142   144    1
    97   145   146    1
    98   145   147    1
    99   148   149    1
   100   148   150    1
   101   151   152    1
   102   151   153    1
   103   154   155    1
   104   154   156    1
   105   157   158    1
   106   157   159    1
   107   160   161    1
   108   160   162    1
   109   163   164    1
   110   163   165    1
   111   166   167    1
   112   166   168    1
   113   169   170    1
   114   169   171    1
   115   172   173    1
   116   172   174    1
   117   175   176    1
   118   175   177    1
   119   178   179    1
   120   178   180    1
   121   181   182    1
   122   181   183    1
   123   184   185    1
   124   184   186    1
   125   187   188    1
   126   187   189    1
   127   190   191    1
   128   190   192    1
   129   193   194    1
   130   193   195    1
   131   196   197    1
   132   196   198    1
   133   199   200    1
   134   199   201    1
   135   202   203    1
   136   202   204    1
   137   205   206    1
   138   205   207    1
   139   208   209    1
   140   208   210    1
   141   211   212    1
   142   211   213    1
   143   214   215    1
   144   214   216    1
   145   217   218    1
   146   217   219    1
   147   220   221    1
   148   220   222    1
   149   223   224    1
   150   223   225    1
   151   226   227    1
   152   226   228    1
   153   229   230    1
   154   229   231    1
   155   232   233    1
   156   232   234    1
   157   235   236    1
   158   235   237    1
   159   238   239    1
   160   238   240    1
   161   241   242    1
   162   241   243    1
   163   244   245    1
   164   244   246    1
   165   247   248    1
   166   247   249    1
   167   250   251    1
   168   250   252    1
   169   253   254    1
   170   253   255    1
   171   256   257    1
   172   256   258    1
   173   259   260    1
   174   259   261    1
   175   262   263    1
   176   262   264    1
   177   265   266    1
   178   265   267    1
   179   268   269    1
   180   268   270    1
   181   271   272    1
   182   271   273    1
   183   274   275    1
   184   274   276    1
   185   277   278    1
   186   277   279    1
   187   280   281    1
   188   280   282    1
   189   283   284    1
   190   283   285    1
   191   286   287    1
   192   286   288    1
   193   289   290    1
   194   289   291    1
   195   292   293    1
   196   292   294    1
   197   295   296    1
   198   295   297    1
   199   298   299    1
   200   298   300    1
   201   301   302    1
   202   301   303    1
   203   304   305    1
   204   304   306    1
   205   307   308    1
   206   307   309    1
   207   310   311    1
   208   310   312    1
   209   313   314    1
   210   313   315    1
   211   316   317    1
   212   316   318    1
   213   319   320    1
   214   319   321    1
   215   322   323    1
   216   322   324    1
   217   325   326    1
   218   325   327    1
   219   328   329    1
   220   328   330    1
   221   331   332    1
   222   331   333    1
   223   334   335    1
   224   334   336    1
   225   337   338    1
   226   337   339    1
   227   340   341    1
   228   340   342    1
   229   343   344    1
   230   343   345    1
   231   346   347    1
   232   346   348    1
   233   349   350    1
   234   349   351    1
   235   352   353    1
   236   352   354    1
   237   355   356    1
   238   355   357    1
   239   358   359    1
   240   358   360    1
   241   361   362    1
   242   361   363    1
   243   364   365    1
   244   364   366    1
   245   367   368    1
   246   367   369    1
   247   370   371    1
   248   370   372    1
   249   373   374    1
   250   373   375    1
