@<TRIPOS>MOLECULE
*****
<<<<<<< HEAD
 375 250 0 0 0
=======
 261 174 0 0 0
>>>>>>> 038e334a388126d42b0fb0c2c05aa260f5dd3043
SMALL
GASTEIGER

@<TRIPOS>ATOM
<<<<<<< HEAD
      1 O          -1.3360   -1.4511   -1.8162 O.3     1  HOH1       -0.4105
      2 H          -1.5200   -0.5864   -1.4195 H       0  HOH0        0.2052
      3 H          -0.3698   -1.5199   -1.7899 H       0  HOH0        0.2052
      4 O          -1.5196   -1.4806    1.8940 O.3     2  HOH2       -0.4105
      5 H          -1.4998   -0.5900    2.2753 H       0  HOH0        0.2052
      6 H          -0.7195   -1.5197    1.3488 H       0  HOH0        0.2052
      7 O          -1.3705   -1.5015    4.9307 O.3     3  HOH3       -0.4105
      8 H          -1.5198   -0.5569    4.7741 H       0  HOH0        0.2052
      9 H          -0.7405   -1.5200    5.6668 H       0  HOH0        0.2052
     10 O          -1.3650   -1.4794    8.2252 O.3     4  HOH4       -0.4105
     11 H          -1.5193   -0.7750    7.5779 H       0  HOH0        0.2052
     12 H          -0.4495   -1.3390    8.5101 H       0  HOH0        0.2052
     13 O           0.1638   -1.5199   11.0212 O.3     5  HOH5       -0.4105
     14 H          -0.1942   -0.7209   10.6059 H       0  HOH0        0.2052
     15 H           0.2215   -1.2897   11.9607 H       0  HOH0        0.2052
     16 O          -1.3996    1.4496    0.3120 O.3     6  HOH6       -0.4105
     17 H          -1.2403    1.5726   -0.6358 H       0  HOH0        0.2052
     18 H          -0.9519    0.6153    0.5183 H       0  HOH0        0.2052
     19 O           0.1119    3.4603    2.4901 O.3     7  HOH7       -0.4105
     20 H           0.8818    3.4356    1.9022 H       0  HOH0        0.2052
     21 H           0.2354    2.6937    3.0698 H       0  HOH0        0.2052
     22 O          -1.5190    1.9793    5.1883 O.3     8  HOH8       -0.4105
     23 H          -1.0328    2.8075    5.3173 H       0  HOH0        0.2052
     24 H          -1.0880    1.5717    4.4221 H       0  HOH0        0.2052
     25 O          -0.8197    2.9890    8.9894 O.3     9  HOH9       -0.4105
     26 H          -0.0948    3.3406    8.4511 H       0  HOH0        0.2052
     27 H          -1.5193    2.8009    8.3459 H       0  HOH0        0.2052
     28 O          -1.5196    0.2911   13.1424 O.3    10  HOH10      -0.4105
     29 H          -1.2530    1.2218   13.1828 H       0  HOH0        0.2052
     30 H          -1.4853    0.0787   12.1976 H       0  HOH0        0.2052
     31 O          -1.0745    6.4228   -1.6273 O.3    11  HOH11      -0.4105
     32 H          -1.5193    5.5830   -1.8163 H       0  HOH0        0.2052
     33 H          -0.1400    6.1797   -1.5460 H       0  HOH0        0.2052
     34 O          -1.4308    6.0475    1.3972 O.3    12  HOH12      -0.4105
     35 H          -1.4957    5.0964    1.2234 H       0  HOH0        0.2052
     36 H          -1.2383    6.0996    2.3454 H       0  HOH0        0.2052
     37 O          -0.7150    5.3743    4.8760 O.3    13  HOH13      -0.4105
     38 H          -1.5194    5.9094    4.8014 H       0  HOH0        0.2052
     39 H          -0.1634    5.8668    5.5022 H       0  HOH0        0.2052
     40 O          -1.5197    5.7680    7.7905 O.3    14  HOH14      -0.4105
     41 H          -0.8059    5.1866    7.4881 H       0  HOH0        0.2052
     42 H          -1.1432    6.2199    8.5606 H       0  HOH0        0.2052
     43 O          -0.5833    4.7785   12.3110 O.3    15  HOH15      -0.4105
     44 H          -0.4961    5.1930   13.1825 H       0  HOH0        0.2052
     45 H          -1.5194    4.5330   12.2612 H       0  HOH0        0.2052
     46 O          -1.5150    9.3419   -1.4388 O.3    16  HOH16      -0.4105
     47 H          -0.6373    9.1690   -1.8112 H       0  HOH0        0.2052
     48 H          -1.4065   10.1786   -0.9624 H       0  HOH0        0.2052
     49 O          -0.8136    8.8437    2.2775 O.3    17  HOH17      -0.4105
     50 H          -0.5997    9.5614    2.8923 H       0  HOH0        0.2052
     51 H          -0.3276    8.0823    2.6283 H       0  HOH0        0.2052
     52 O          -1.5196    8.4636    5.3796 O.3    18  HOH18      -0.4105
     53 H          -1.3368    9.4048    5.2394 H       0  HOH0        0.2052
     54 H          -0.9483    8.0160    4.7376 H       0  HOH0        0.2052
     55 O          -0.9742    9.0202    9.2505 O.3    19  HOH19      -0.4105
     56 H          -1.3909    8.4056    8.6280 H       0  HOH0        0.2052
     57 H          -0.1527    9.2808    8.8077 H       0  HOH0        0.2052
     58 O          -1.3427    7.7220   13.1826 O.3    20  HOH20      -0.4105
     59 H          -0.4325    7.3896   13.1826 H       0  HOH0        0.2052
     60 H          -1.5196    7.9198   12.2506 H       0  HOH0        0.2052
     61 O          -1.4687   12.8768   -1.8159 O.3    21  HOH21      -0.4105
     62 H          -0.9466   12.0606   -1.8060 H       0  HOH0        0.2052
     63 H          -0.9725   13.4791   -1.2415 H       0  HOH0        0.2052
     64 O          -0.9369   13.3364    1.8141 O.3    22  HOH22      -0.4105
     65 H          -1.5192   12.5706    1.9303 H       0  HOH0        0.2052
     66 H          -0.4997   13.4305    2.6737 H       0  HOH0        0.2052
     67 O          -1.5192   12.9644    5.1371 O.3    23  HOH23      -0.4105
     68 H          -0.9729   12.4071    4.5627 H       0  HOH0        0.2052
     69 H          -0.8747   13.4799    5.6448 H       0  HOH0        0.2052
     70 O          -0.7166   11.9411    8.3493 O.3    24  HOH24      -0.4105
     71 H          -0.5212   12.2484    7.4514 H       0  HOH0        0.2052
     72 H          -1.4990   11.3800    8.2395 H       0  HOH0        0.2052
     73 O           0.0471   12.5850   11.2209 O.3    25  HOH25      -0.4105
     74 H          -0.3557   13.4579   11.3421 H       0  HOH0        0.2052
     75 H           0.7699   12.7455   10.5958 H       0  HOH0        0.2052
     76 O           2.4784   -1.3266    0.3019 O.3    26  HOH26      -0.4105
     77 H           2.3937   -0.3912    0.5403 H       0  HOH0        0.2052
     78 H           3.4354   -1.4767    0.2793 H       0  HOH0        0.2052
     79 O           2.6867    0.9307    2.7831 O.3    27  HOH27      -0.4105
     80 H           3.3275    1.5046    3.2292 H       0  HOH0        0.2052
     81 H           1.9423    1.5193    2.5868 H       0  HOH0        0.2052
     82 O           1.0699    0.2963    5.1835 O.3    28  HOH28      -0.4105
     83 H           1.2168   -0.6614    5.1934 H       0  HOH0        0.2052
     84 H           1.7368    0.6418    5.7958 H       0  HOH0        0.2052
     85 O           2.8492   -1.5146    9.2798 O.3    29  HOH29      -0.4105
     86 H           3.7122   -1.4258    8.8482 H       0  HOH0        0.2052
     87 H           2.2771   -0.9079    8.7863 H       0  HOH0        0.2052
     88 O           2.9165    0.3632   13.1822 O.3    30  HOH30      -0.4105
     89 H           3.7701    0.8200   13.1405 H       0  HOH0        0.2052
     90 H           2.5390    0.4914   12.2991 H       0  HOH0        0.2052
     91 O           1.2955    1.0568   -1.4612 O.3    31  HOH31      -0.4105
     92 H           0.6370    1.6747   -1.8128 H       0  HOH0        0.2052
     93 H           0.9331    0.7921   -0.6024 H       0  HOH0        0.2052
     94 O           0.0697    3.8844   -0.5249 O.3    32  HOH32      -0.4105
     95 H           1.0171    4.0501   -0.4062 H       0  HOH0        0.2052
     96 H          -0.0663    3.9771   -1.4798 H       0  HOH0        0.2052
     97 O           2.0668    3.1523    4.8305 O.3    33  HOH33      -0.4105
     98 H           1.1210    3.2804    4.9980 H       0  HOH0        0.2052
     99 H           2.3897    2.7159    5.6331 H       0  HOH0        0.2052
    100 O           1.9948    1.7815    8.5848 O.3    34  HOH34      -0.4105
    101 H           2.8951    2.0725    8.3759 H       0  HOH0        0.2052
    102 H           1.7076    2.3905    9.2816 H       0  HOH0        0.2052
    103 O           1.8735    3.6521   12.8129 O.3    35  HOH35      -0.4105
    104 H           2.1489    3.7014   11.8852 H       0  HOH0        0.2052
    105 H           2.4221    2.9441   13.1827 H       0  HOH0        0.2052
    106 O           2.1906    6.4204   -0.3809 O.3    36  HOH36      -0.4105
    107 H           1.3735    6.1421    0.0595 H       0  HOH0        0.2052
    108 H           2.4544    5.6440   -0.8971 H       0  HOH0        0.2052
    109 O           2.5215    5.3040    2.7293 O.3    37  HOH37      -0.4105
    110 H           2.8396    6.1186    3.1466 H       0  HOH0        0.2052
    111 H           3.2675    5.0140    2.1831 H       0  HOH0        0.2052
    112 O           2.4344    6.1265    5.7143 O.3    38  HOH38      -0.4105
    113 H           2.7698    6.9862    6.0098 H       0  HOH0        0.2052
    114 H           3.1963    5.7149    5.2795 H       0  HOH0        0.2052
    115 O           2.7617    4.7009    8.4989 O.3    39  HOH39      -0.4105
    116 H           3.4034    5.2223    7.9936 H       0  HOH0        0.2052
    117 H           1.9594    5.2442    8.4896 H       0  HOH0        0.2052
    118 O           1.8083    6.0804   10.9588 O.3    40  HOH40      -0.4105
    119 H           2.1547    6.5955   10.2148 H       0  HOH0        0.2052
    120 H           1.6685    6.7396   11.6551 H       0  HOH0        0.2052
    121 O           1.8659    9.9551   -1.8050 O.3    41  HOH41      -0.4105
    122 H           1.5191    9.1584   -1.3761 H       0  HOH0        0.2052
    123 H           2.8195    9.9149   -1.6374 H       0  HOH0        0.2052
    124 O           2.4701    9.1720    1.0690 O.3    42  HOH42      -0.4105
    125 H           1.5423    9.3844    1.2505 H       0  HOH0        0.2052
    126 H           2.7291    8.6032    1.8095 H       0  HOH0        0.2052
    127 O           1.5842    8.9335    4.2046 O.3    43  HOH43      -0.4105
    128 H           2.3539    8.3513    4.2909 H       0  HOH0        0.2052
    129 H           1.7444    9.6317    4.8572 H       0  HOH0        0.2052
    130 O           2.0385    9.0944    7.3831 O.3    44  HOH44      -0.4105
    131 H           2.4851    8.5806    8.0727 H       0  HOH0        0.2052
    132 H           2.4999    9.9465    7.3903 H       0  HOH0        0.2052
    133 O           1.5548    9.0697   12.8785 O.3    45  HOH45      -0.4105
    134 H           1.8677    9.9348   13.1830 H       0  HOH0        0.2052
    135 H           2.0920    8.8900   12.0923 H       0  HOH0        0.2052
    136 O           1.5646   12.9872   -1.6509 O.3    46  HOH46      -0.4105
    137 H           1.0247   12.5089   -1.0038 H       0  HOH0        0.2052
    138 H           2.4092   12.5123   -1.6478 H       0  HOH0        0.2052
    139 O           2.8236   12.8459    2.5846 O.3    47  HOH47      -0.4105
    140 H           2.9299   13.3572    3.4008 H       0  HOH0        0.2052
    141 H           2.4400   13.4794    1.9597 H       0  HOH0        0.2052
    142 O           1.5193   12.2110    5.2869 O.3    48  HOH48      -0.4105
    143 H           1.0983   12.6892    6.0169 H       0  HOH0        0.2052
    144 H           2.2129   11.6893    5.7179 H       0  HOH0        0.2052
    145 O           2.3078   12.5063    8.2322 O.3    49  HOH49      -0.4105
    146 H           2.7044   13.3660    8.4385 H       0  HOH0        0.2052
    147 H           3.0013   12.0402    7.7415 H       0  HOH0        0.2052
    148 O           2.8450   11.2448   11.1438 O.3    50  HOH50      -0.4105
    149 H           2.5699   12.0308   11.6394 H       0  HOH0        0.2052
    150 H           3.4506   11.5919   10.4717 H       0  HOH0        0.2052
    151 O           4.3213   -0.1687   -1.8167 O.3    51  HOH51      -0.4105
    152 H           3.7963    0.3358   -1.1773 H       0  HOH0        0.2052
    153 H           5.2372   -0.0165   -1.5395 H       0  HOH0        0.2052
    154 O           5.6618   -1.3967    1.6870 O.3    52  HOH52      -0.4105
    155 H           5.2039   -0.6296    1.3117 H       0  HOH0        0.2052
    156 H           5.2431   -1.5191    2.5523 H       0  HOH0        0.2052
    157 O           3.6074   -1.1544    6.1613 O.3    53  HOH53      -0.4105
    158 H           3.3044   -1.1925    5.2417 H       0  HOH0        0.2052
    159 H           2.7890   -1.0785    6.6746 H       0  HOH0        0.2052
    160 O           5.8467   -0.1588    7.9523 O.3    54  HOH54      -0.4105
    161 H           5.6583   -1.1060    7.8730 H       0  HOH0        0.2052
    162 H           4.9878    0.2333    8.1699 H       0  HOH0        0.2052
    163 O           5.4775   -1.3179   13.0113 O.3    55  HOH55      -0.4105
    164 H           5.6052   -0.3662   13.1412 H       0  HOH0        0.2052
    165 H           6.0041   -1.5193   12.2232 H       0  HOH0        0.2052
    166 O           4.3873    2.8357   -1.8164 O.3    56  HOH56      -0.4105
    167 H           3.4596    3.1145   -1.7915 H       0  HOH0        0.2052
    168 H           4.5239    2.4004   -0.9616 H       0  HOH0        0.2052
    169 O           6.0185    1.7268    2.1173 O.3    57  HOH57      -0.4105
    170 H           5.1170    2.0806    2.0863 H       0  HOH0        0.2052
    171 H           6.2244    1.6931    3.0635 H       0  HOH0        0.2052
    172 O           5.0048    2.9531    5.0104 O.3    58  HOH58      -0.4105
    173 H           5.9172    3.1576    5.2645 H       0  HOH0        0.2052
    174 H           4.6049    2.6149    5.8257 H       0  HOH0        0.2052
    175 O           6.4492    3.1737    7.8260 O.3    59  HOH59      -0.4105
    176 H           5.6763    3.6245    7.4540 H       0  HOH0        0.2052
    177 H           6.1043    2.7313    8.6162 H       0  HOH0        0.2052
    178 O           4.6555    0.3511   10.7195 O.3    60  HOH60      -0.4105
    179 H           4.9727   -0.5469   10.5410 H       0  HOH0        0.2052
    180 H           5.3017    0.9203   10.2752 H       0  HOH0        0.2052
    181 O           4.8827    6.0484   -1.7437 O.3    61  HOH61      -0.4105
    182 H           5.4138    5.2412   -1.8163 H       0  HOH0        0.2052
    183 H           5.4224    6.6349   -1.1926 H       0  HOH0        0.2052
    184 O           5.2975    4.2936    0.6775 O.3    62  HOH62      -0.4105
    185 H           5.5788    5.2118    0.8062 H       0  HOH0        0.2052
    186 H           5.9046    3.9551    0.0024 H       0  HOH0        0.2052
    187 O           5.3350    5.7231    3.8024 O.3    63  HOH63      -0.4105
    188 H           5.5593    5.8908    2.8747 H       0  HOH0        0.2052
    189 H           6.1775    5.8277    4.2695 H       0  HOH0        0.2052
    190 O           5.6999    6.3381    8.5824 O.3    64  HOH64      -0.4105
    191 H           6.6103    6.1288    8.8398 H       0  HOH0        0.2052
    192 H           5.7187    6.3126    7.6139 H       0  HOH0        0.2052
    193 O           4.7581    3.9308   11.9336 O.3    65  HOH65      -0.4105
    194 H           5.0624    3.6699   11.0514 H       0  HOH0        0.2052
    195 H           5.5773    4.0777   12.4298 H       0  HOH0        0.2052
    196 O           5.4375    9.5810   -1.8166 O.3    66  HOH66      -0.4105
    197 H           5.8522    8.7052   -1.8118 H       0  HOH0        0.2052
    198 H           5.3681    9.8123   -0.8782 H       0  HOH0        0.2052
    199 O           5.2319    8.5484    2.6846 O.3    67  HOH67      -0.4105
    200 H           6.0331    8.0431    2.8888 H       0  HOH0        0.2052
    201 H           4.8709    8.1080    1.9006 H       0  HOH0        0.2052
    202 O           5.3692    8.1140    5.7439 O.3    68  HOH68      -0.4105
    203 H           5.6226    9.0069    6.0222 H       0  HOH0        0.2052
    204 H           6.0380    7.8757    5.0845 H       0  HOH0        0.2052
    205 O           4.8294    9.6511    8.5448 O.3    69  HOH69      -0.4105
    206 H           5.3500    8.9074    8.2059 H       0  HOH0        0.2052
    207 H           5.1974   10.4221    8.0876 H       0  HOH0        0.2052
    208 O           5.7009    6.6279   12.9228 O.3    70  HOH70      -0.4105
    209 H           5.6064    7.5615   13.1643 H       0  HOH0        0.2052
    210 H           4.8555    6.2321   13.1827 H       0  HOH0        0.2052
    211 O           4.4932   13.4685   -0.4192 O.3    71  HOH71      -0.4105
    212 H           3.5916   13.4789   -0.0645 H       0  HOH0        0.2052
    213 H           4.3670   13.4791   -1.3799 H       0  HOH0        0.2052
    214 O           5.7179   12.2052    1.9207 O.3    72  HOH72      -0.4105
    215 H           6.3518   12.5144    1.2563 H       0  HOH0        0.2052
    216 H           6.1661   11.4560    2.3411 H       0  HOH0        0.2052
    217 O           4.9468   12.6578    4.9194 O.3    73  HOH73      -0.4105
    218 H           4.9182   13.4777    5.4350 H       0  HOH0        0.2052
    219 H           5.5838   12.1040    5.3953 H       0  HOH0        0.2052
    220 O           5.2938   13.2751    8.0116 O.3    74  HOH74      -0.4105
    221 H           5.6983   12.5242    7.5517 H       0  HOH0        0.2052
    222 H           5.9147   13.4722    8.7289 H       0  HOH0        0.2052
    223 O           6.1098   10.4815   11.2293 O.3    75  HOH75      -0.4105
    224 H           5.4641   11.2034   11.2564 H       0  HOH0        0.2052
    225 H           5.5729    9.6935   11.0571 H       0  HOH0        0.2052
    226 O           8.6770   -1.4976   -0.2319 O.3    76  HOH76      -0.4105
    227 H           9.6126   -1.5189   -0.4832 H       0  HOH0        0.2052
    228 H           8.5426   -0.5949    0.0936 H       0  HOH0        0.2052
    229 O           9.0893   -1.4511    2.7303 O.3    77  HOH77      -0.4105
    230 H           9.1872   -0.7527    3.3947 H       0  HOH0        0.2052
    231 H           8.1387   -1.4646    2.5431 H       0  HOH0        0.2052
    232 O           6.7122   -1.2873    4.7037 O.3    78  HOH78      -0.4105
    233 H           6.8835   -0.9445    5.5937 H       0  HOH0        0.2052
    234 H           5.7605   -1.4696    4.7023 H       0  HOH0        0.2052
    235 O           9.1358   -1.3549   10.3235 O.3    79  HOH79      -0.4105
    236 H           9.7572   -0.8660    9.7633 H       0  HOH0        0.2052
    237 H           8.3773   -1.5195    9.7433 H       0  HOH0        0.2052
    238 O          10.9657    0.2489   12.1291 O.3    80  HOH80      -0.4105
    239 H          10.9665    0.3212   11.1628 H       0  HOH0        0.2052
    240 H          11.1070    1.1584   12.4320 H       0  HOH0        0.2052
    241 O           7.6519    0.9613   -1.8167 O.3    81  HOH81      -0.4105
    242 H           8.5752    0.7058   -1.6716 H       0  HOH0        0.2052
    243 H           7.3980    1.4005   -0.9911 H       0  HOH0        0.2052
    244 O           8.4594    3.6339    0.4856 O.3    82  HOH82      -0.4105
    245 H           9.0793    3.0795    0.9829 H       0  HOH0        0.2052
    246 H           8.4505    3.2392   -0.3994 H       0  HOH0        0.2052
    247 O           8.4023    3.0829    3.4590 O.3    83  HOH83      -0.4105
    248 H           9.0345    2.5442    3.9581 H       0  HOH0        0.2052
    249 H           8.9483    3.7794    3.0645 H       0  HOH0        0.2052
    250 O           8.4952    0.7508    6.7745 O.3    84  HOH84      -0.4105
    251 H           9.1005    1.2950    7.3003 H       0  HOH0        0.2052
    252 H           8.3875   -0.0552    7.3014 H       0  HOH0        0.2052
    253 O           9.0017    2.6638   12.8102 O.3    85  HOH85      -0.4105
    254 H           8.1343    2.8832   13.1822 H       0  HOH0        0.2052
    255 H           8.8682    1.7955   12.4013 H       0  HOH0        0.2052
    256 O           7.9832    5.5527   -1.8163 O.3    86  HOH86      -0.4105
    257 H           7.5614    6.1208   -1.1543 H       0  HOH0        0.2052
    258 H           8.9146    5.8190   -1.7939 H       0  HOH0        0.2052
    259 O           8.5611    6.2479    2.2652 O.3    87  HOH87      -0.4105
    260 H           8.5670    6.9339    2.9495 H       0  HOH0        0.2052
    261 H           7.7001    5.8167    2.3734 H       0  HOH0        0.2052
    262 O           9.2915    5.4841    5.0964 O.3    88  HOH88      -0.4105
    263 H           9.3688    6.4172    5.3457 H       0  HOH0        0.2052
    264 H           8.4090    5.2312    5.4064 H       0  HOH0        0.2052
    265 O           9.1678    4.5186    8.0342 O.3    89  HOH89      -0.4105
    266 H           8.7434    4.0350    8.7588 H       0  HOH0        0.2052
    267 H           8.8250    4.0910    7.2351 H       0  HOH0        0.2052
    268 O           9.7267    6.0105   10.6456 O.3    90  HOH90      -0.4105
    269 H           9.2459    6.6544   11.1872 H       0  HOH0        0.2052
    270 H           9.0986    5.2807   10.5369 H       0  HOH0        0.2052
    271 O           8.6590    8.4425   -1.7358 O.3    91  HOH91      -0.4105
    272 H           8.0248    9.1706   -1.8169 H       0  HOH0        0.2052
    273 H           9.2813    8.7484   -1.0589 H       0  HOH0        0.2052
    274 O           8.0542    9.6432    2.4212 O.3    92  HOH92      -0.4105
    275 H           8.0250    8.7959    1.9520 H       0  HOH0        0.2052
    276 H           8.8030    9.5485    3.0289 H       0  HOH0        0.2052
    277 O           8.1609    9.3361    5.5607 O.3    93  HOH93      -0.4105
    278 H           8.1648    8.4140    5.2629 H       0  HOH0        0.2052
    279 H           8.8895    9.3793    6.1980 H       0  HOH0        0.2052
    280 O           8.3462    7.9442    8.2572 O.3    94  HOH94      -0.4105
    281 H           8.7240    8.8296    8.3677 H       0  HOH0        0.2052
    282 H           8.7869    7.5987    7.4664 H       0  HOH0        0.2052
    283 O           8.0222    8.7064   12.8513 O.3    95  HOH95      -0.4105
    284 H           7.3873    8.4034   12.1849 H       0  HOH0        0.2052
    285 H           8.8667    8.3336   12.5565 H       0  HOH0        0.2052
    286 O           7.6010   12.6145   -1.5018 O.3    96  HOH96      -0.4105
    287 H           7.9046   13.4793   -1.8164 H       0  HOH0        0.2052
    288 H           8.3386   12.0196   -1.7043 H       0  HOH0        0.2052
    289 O           8.9452   13.4795    1.8724 O.3    97  HOH97      -0.4105
    290 H           8.1968   13.0574    2.3205 H       0  HOH0        0.2052
    291 H           9.5133   12.7375    1.6162 H       0  HOH0        0.2052
    292 O           7.8693   13.3779    5.3528 O.3    98  HOH98      -0.4105
    293 H           8.4273   13.4083    6.1444 H       0  HOH0        0.2052
    294 H           8.4836   13.1394    4.6424 H       0  HOH0        0.2052
    295 O           8.0841   11.5139    7.9066 O.3    99  HOH99      -0.4105
    296 H           8.4237   12.3492    8.2615 H       0  HOH0        0.2052
    297 H           8.5484   11.4124    7.0621 H       0  HOH0        0.2052
    298 O           8.5524   12.5573   12.4078 O.3   100  HOH100     -0.4105
    299 H           8.2482   13.4748   12.4756 H       0  HOH0        0.2052
    300 H           7.7515   12.0333   12.5593 H       0  HOH0        0.2052
    301 O          13.4798   -0.3019   -1.8163 O.3   101  HOH101     -0.4105
    302 H          13.3895    0.6598   -1.7389 H       0  HOH0        0.2052
    303 H          12.6541   -0.6453   -1.4432 H       0  HOH0        0.2052
    304 O          13.1495   -1.3522    1.0175 O.3   102  HOH102     -0.4105
    305 H          13.1284   -0.3856    0.9526 H       0  HOH0        0.2052
    306 H          13.4796   -1.5196    1.9130 H       0  HOH0        0.2052
    307 O          11.6027   -1.5196    5.2471 O.3   103  HOH103     -0.4105
    308 H          12.3718   -0.9494    5.0973 H       0  HOH0        0.2052
    309 H          10.9951   -1.2864    4.5292 H       0  HOH0        0.2052
    310 O          13.4229   -1.3546    7.6762 O.3   104  HOH104     -0.4105
    311 H          13.4791   -1.5137    8.6304 H       0  HOH0        0.2052
    312 H          13.3895   -0.3891    7.6015 H       0  HOH0        0.2052
    313 O          13.4726   -1.1760   13.1693 O.3   105  HOH105     -0.4105
    314 H          13.4797   -0.2144   13.0504 H       0  HOH0        0.2052
    315 H          12.8922   -1.4950   12.4620 H       0  HOH0        0.2052
    316 O          10.6039    2.8502   -1.8163 O.3   106  HOH106     -0.4105
    317 H          11.5665    2.7399   -1.8014 H       0  HOH0        0.2052
    318 H          10.4471    3.6154   -1.2429 H       0  HOH0        0.2052
    319 O          13.4796    3.5948    1.4532 O.3   107  HOH107     -0.4105
    320 H          13.4096    3.9001    2.3702 H       0  HOH0        0.2052
    321 H          13.2583    2.6527    1.5026 H       0  HOH0        0.2052
    322 O          11.3085    1.4738    3.2126 O.3   108  HOH108     -0.4105
    323 H          10.8923    0.6350    3.4622 H       0  HOH0        0.2052
    324 H          12.0276    1.2107    2.6188 H       0  HOH0        0.2052
    325 O          13.4792    2.2130    7.2982 O.3   109  HOH109     -0.4105
    326 H          13.0475    1.5873    6.6973 H       0  HOH0        0.2052
    327 H          13.4017    3.0653    6.8437 H       0  HOH0        0.2052
    328 O          13.4800    3.2487   10.7104 O.3   110  HOH110     -0.4105
    329 H          13.0813    2.4397   10.3561 H       0  HOH0        0.2052
    330 H          12.8002    3.9251   10.5712 H       0  HOH0        0.2052
    331 O          13.0039    6.1017   -0.8224 O.3   111  HOH111     -0.4105
    332 H          12.5283    6.8546   -0.4405 H       0  HOH0        0.2052
    333 H          13.4783    5.7182   -0.0696 H       0  HOH0        0.2052
    334 O          11.6949    6.0038    1.9194 O.3   112  HOH112     -0.4105
    335 H          11.4637    6.0364    2.8599 H       0  HOH0        0.2052
    336 H          12.6629    6.0463    1.9148 H       0  HOH0        0.2052
    337 O          12.3008    5.6064    5.5105 O.3   113  HOH113     -0.4105
    338 H          13.0966    5.8594    5.0190 H       0  HOH0        0.2052
    339 H          11.9452    4.8567    5.0102 H       0  HOH0        0.2052
    340 O          13.4797    5.4826    8.3173 O.3   114  HOH114     -0.4105
    341 H          12.8205    4.8671    7.9629 H       0  HOH0        0.2052
    342 H          13.4363    6.2427    7.7179 H       0  HOH0        0.2052
    343 O          12.7983    5.4049   12.7396 O.3   115  HOH115     -0.4105
    344 H          12.8042    6.2730   13.1703 H       0  HOH0        0.2052
    345 H          13.4800    5.4786   12.0549 H       0  HOH0        0.2052
    346 O          13.4794    9.5448   -1.8169 O.3   116  HOH116     -0.4105
    347 H          13.0308   10.2529   -1.3309 H       0  HOH0        0.2052
    348 H          13.1573    8.7327   -1.3977 H       0  HOH0        0.2052
    349 O          12.7668    9.6504    2.0788 O.3   117  HOH117     -0.4105
    350 H          13.1798   10.1737    1.3756 H       0  HOH0        0.2052
    351 H          12.6380    8.7783    1.6767 H       0  HOH0        0.2052
    352 O          13.2567    8.4679    5.0934 O.3   118  HOH118     -0.4105
    353 H          12.5561    8.8962    4.5791 H       0  HOH0        0.2052
    354 H          13.4797    9.1205    5.7741 H       0  HOH0        0.2052
    355 O          11.1657    8.6962    7.4224 O.3   119  HOH119     -0.4105
    356 H          10.9041    8.5422    8.3426 H       0  HOH0        0.2052
    357 H          11.0518    9.6511    7.3032 H       0  HOH0        0.2052
    358 O          12.8645    8.7116   10.0729 O.3   120  HOH120     -0.4105
    359 H          12.6837    9.5978   10.4206 H       0  HOH0        0.2052
    360 H          13.0664    8.1871   10.8622 H       0  HOH0        0.2052
    361 O          10.4075   13.4799   -0.8194 O.3   121  HOH121     -0.4105
    362 H          11.3706   13.3797   -0.7830 H       0  HOH0        0.2052
    363 H          10.0714   12.6309   -0.4951 H       0  HOH0        0.2052
    364 O          13.4796   12.5224    2.4961 O.3   122  HOH122     -0.4105
    365 H          12.6789   12.1625    2.9065 H       0  HOH0        0.2052
    366 H          13.3980   13.4795    2.6235 H       0  HOH0        0.2052
    367 O          11.3194   13.1001    5.0628 O.3   123  HOH123     -0.4105
    368 H          10.5049   13.4792    5.4259 H       0  HOH0        0.2052
    369 H          11.0213   12.6082    4.2830 H       0  HOH0        0.2052
    370 O          12.8056   13.0285    8.1425 O.3   124  HOH124     -0.4105
    371 H          13.1734   12.2562    7.6873 H       0  HOH0        0.2052
    372 H          11.8554   12.8438    8.1863 H       0  HOH0        0.2052
    373 O          11.0072   11.5461   10.9287 O.3   125  HOH125     -0.4105
    374 H          10.0948   11.3658   10.6568 H       0  HOH0        0.2052
    375 H          11.3926   12.0036   10.1663 H       0  HOH0        0.2052
=======
      1 O           1.5187   -0.3136    0.7139 O.3     1  HOH1       -0.4105
      2 H           2.2811   -0.1558    1.2908 H       0  HOH0        0.2052
      3 H           1.0895    0.5529    0.6509 H       0  HOH0        0.2052
      4 O           1.4516    1.0512    3.8501 O.3     2  HOH2       -0.4105
      5 H           1.9820    1.8397    3.6611 H       0  HOH0        0.2052
      6 H           0.8711    0.9691    3.0786 H       0  HOH0        0.2052
      7 O           1.4172    1.6437    7.1869 O.3     3  HOH3       -0.4105
      8 H           2.1684    2.1549    7.5235 H       0  HOH0        0.2052
      9 H           0.6519    2.0237    7.6440 H       0  HOH0        0.2052
     10 O           1.3562    1.1212   10.1176 O.3     4  HOH4       -0.4105
     11 H           1.7101    0.2809    9.7897 H       0  HOH0        0.2052
     12 H           2.1053    1.7322   10.0521 H       0  HOH0        0.2052
     13 O           1.3195    2.4865   -1.6893 O.3     5  HOH5       -0.4105
     14 H           1.0235    3.3365   -1.3304 H       0  HOH0        0.2052
     15 H           1.8407    2.0977   -0.9708 H       0  HOH0        0.2052
     16 O           0.9164    3.2802    1.4462 O.3     6  HOH6       -0.4105
     17 H           1.6749    2.6779    1.4150 H       0  HOH0        0.2052
     18 H           1.2967    4.1466    1.2371 H       0  HOH0        0.2052
     19 O           1.3546    4.3218    5.5241 O.3     7  HOH7       -0.4105
     20 H           1.6635    5.1329    5.9549 H       0  HOH0        0.2052
     21 H           2.1601    3.7949    5.4121 H       0  HOH0        0.2052
     22 O           1.2162    4.3938    9.0173 O.3     8  HOH8       -0.4105
     23 H           1.9881    4.0365    9.4815 H       0  HOH0        0.2052
     24 H           1.5977    4.9672    8.3357 H       0  HOH0        0.2052
     25 O           0.3864    6.5421    0.2388 O.3     9  HOH9       -0.4105
     26 H           0.0686    7.2179    0.8562 H       0  HOH0        0.2052
     27 H           1.3230    6.4399    0.4652 H       0  HOH0        0.2052
     28 O           1.2174    6.6251    3.4155 O.3    10  HOH10      -0.4105
     29 H           1.5858    7.4782    3.1410 H       0  HOH0        0.2052
     30 H           1.7299    5.9756    2.9110 H       0  HOH0        0.2052
     31 O          -0.6371    6.6684    6.6078 O.3    11  HOH11      -0.4105
     32 H          -0.0758    6.9108    5.8560 H       0  HOH0        0.2052
     33 H          -0.0157    6.3048    7.2563 H       0  HOH0        0.2052
     34 O           0.4379    8.0587    9.6071 O.3    12  HOH12      -0.4105
     35 H           0.6236    7.1330    9.3890 H       0  HOH0        0.2052
     36 H           1.3146    8.4689    9.6528 H       0  HOH0        0.2052
     37 O           1.1520    9.9363   -0.2248 O.3    13  HOH13      -0.4105
     38 H           1.2803   10.7863    0.2225 H       0  HOH0        0.2052
     39 H           1.2272    9.2835    0.4873 H       0  HOH0        0.2052
     40 O           0.4998   10.7505    2.9604 O.3    14  HOH14      -0.4105
     41 H           1.2253   11.3829    3.0730 H       0  HOH0        0.2052
     42 H           0.9466    9.8954    2.8697 H       0  HOH0        0.2052
     43 O           0.3773    9.8577    6.0640 O.3    15  HOH15      -0.4105
     44 H           1.2792   10.0735    6.3452 H       0  HOH0        0.2052
     45 H           0.4978    9.1475    5.4159 H       0  HOH0        0.2052
     46 O           1.6943   11.3847    9.0727 O.3    16  HOH16      -0.4105
     47 H           1.9470   12.0831    8.4502 H       0  HOH0        0.2052
     48 H           1.7654   10.5704    8.5523 H       0  HOH0        0.2052
     49 O           1.4609   10.0283   12.0755 O.3    17  HOH17      -0.4105
     50 H           1.4139    9.7338   12.9974 H       0  HOH0        0.2052
     51 H           2.2296    9.5585   11.7186 H       0  HOH0        0.2052
     52 O           4.2253    0.7948   -0.6154 O.3    18  HOH18      -0.4105
     53 H           3.9669    1.5214   -0.0287 H       0  HOH0        0.2052
     54 H           4.3816    0.0519   -0.0133 H       0  HOH0        0.2052
     55 O           4.5011    0.5340    2.8504 O.3    19  HOH19      -0.4105
     56 H           4.0280    1.1819    2.3069 H       0  HOH0        0.2052
     57 H           4.8512   -0.1003    2.2069 H       0  HOH0        0.2052
     58 O           4.0474    1.9463    5.4149 O.3    20  HOH20      -0.4105
     59 H           4.2304    2.0773    6.3574 H       0  HOH0        0.2052
     60 H           4.4910    2.6925    4.9844 H       0  HOH0        0.2052
     61 O           4.5328    0.6641    8.9293 O.3    21  HOH21      -0.4105
     62 H           5.2312    0.7480    9.5958 H       0  HOH0        0.2052
     63 H           4.1539    1.5542    8.8740 H       0  HOH0        0.2052
     64 O           4.0231    0.5381   12.3755 O.3    22  HOH22      -0.4105
     65 H           4.1055    1.2312   13.0477 H       0  HOH0        0.2052
     66 H           3.6658    1.0021   11.6035 H       0  HOH0        0.2052
     67 O           3.4516    4.6240   -0.5687 O.3    23  HOH23      -0.4105
     68 H           3.4030    3.7422   -0.1698 H       0  HOH0        0.2052
     69 H           3.3001    5.2261    0.1752 H       0  HOH0        0.2052
     70 O           3.7200    4.1763    2.6445 O.3    24  HOH24      -0.4105
     71 H           3.8877    3.4229    2.0586 H       0  HOH0        0.2052
     72 H           3.0308    3.8562    3.2458 H       0  HOH0        0.2052
     73 O           4.2765    4.5183    7.6432 O.3    25  HOH25      -0.4105
     74 H           4.1244    4.4263    6.6906 H       0  HOH0        0.2052
     75 H           3.8907    3.7136    8.0206 H       0  HOH0        0.2052
     76 O           4.8400    3.5366   10.7775 O.3    26  HOH26      -0.4105
     77 H           3.9440    3.3645   10.4512 H       0  HOH0        0.2052
     78 H           4.8584    3.1095   11.6471 H       0  HOH0        0.2052
     79 O           3.5697    7.9160    0.9760 O.3    27  HOH27      -0.4105
     80 H           3.3368    7.1490    1.5204 H       0  HOH0        0.2052
     81 H           3.5774    7.5676    0.0718 H       0  HOH0        0.2052
     82 O           4.3565    6.3939    4.5879 O.3    28  HOH28      -0.4105
     83 H           4.0907    6.6804    3.7013 H       0  HOH0        0.2052
     84 H           3.5824    5.9159    4.9214 H       0  HOH0        0.2052
     85 O           2.4760    7.5944    7.1076 O.3    29  HOH29      -0.4105
     86 H           2.8583    6.7130    7.2334 H       0  HOH0        0.2052
     87 H           2.1996    7.5993    6.1789 H       0  HOH0        0.2052
     88 O           3.2026    6.4863   10.1828 O.3    30  HOH30      -0.4105
     89 H           3.9310    6.1771    9.6236 H       0  HOH0        0.2052
     90 H           3.1891    5.8564   10.9191 H       0  HOH0        0.2052
     91 O           3.8720   11.0119    1.4840 O.3    31  HOH31      -0.4105
     92 H           3.0107   10.6308    1.7116 H       0  HOH0        0.2052
     93 H           4.5018   10.5003    2.0136 H       0  HOH0        0.2052
     94 O           3.1823    9.2921    4.3236 O.3    32  HOH32      -0.4105
     95 H           3.0748   10.2471    4.2000 H       0  HOH0        0.2052
     96 H           3.4272    8.9682    3.4438 H       0  HOH0        0.2052
     97 O           4.0271   11.0867    6.7359 O.3    33  HOH33      -0.4105
     98 H           3.2076   11.5124    6.4423 H       0  HOH0        0.2052
     99 H           3.7666   10.1689    6.9049 H       0  HOH0        0.2052
    100 O           4.2161    9.5351    9.6001 O.3    34  HOH34      -0.4105
    101 H           4.9436    9.6301    8.9671 H       0  HOH0        0.2052
    102 H           3.5553    9.0130    9.1208 H       0  HOH0        0.2052
    103 O           7.1577   -0.1552    0.4785 O.3    35  HOH35      -0.4105
    104 H           7.2184    0.2745   -0.3879 H       0  HOH0        0.2052
    105 H           6.7290    0.5085    1.0395 H       0  HOH0        0.2052
    106 O           7.5009   -1.0368    3.6419 O.3    36  HOH36      -0.4105
    107 H           7.0598   -0.2078    3.4030 H       0  HOH0        0.2052
    108 H           8.1371   -0.7753    4.3244 H       0  HOH0        0.2052
    109 O           6.5925    0.7186    6.2110 O.3    37  HOH37      -0.4105
    110 H           6.7049    1.1139    5.3335 H       0  HOH0        0.2052
    111 H           7.4987    0.5491    6.5092 H       0  HOH0        0.2052
    112 O           7.4111   -1.0662    8.9560 O.3    38  HOH38      -0.4105
    113 H           7.4931   -0.1051    9.0484 H       0  HOH0        0.2052
    114 H           7.9414   -1.2721    8.1717 H       0  HOH0        0.2052
    115 O           6.9103    1.3311   11.8830 O.3    39  HOH39      -0.4105
    116 H           7.6471    1.9454   11.7464 H       0  HOH0        0.2052
    117 H           7.1258    0.5768   11.3142 H       0  HOH0        0.2052
    118 O           6.3226    3.1016   -0.1316 O.3    40  HOH40      -0.4105
    119 H           5.8548    2.9614    0.7053 H       0  HOH0        0.2052
    120 H           7.1738    2.6574   -0.0013 H       0  HOH0        0.2052
    121 O           6.5527    3.4156    3.2539 O.3    41  HOH41      -0.4105
    122 H           7.1878    3.8776    2.6864 H       0  HOH0        0.2052
    123 H           7.1027    2.8181    3.7826 H       0  HOH0        0.2052
    124 O           7.0452    4.1859    6.1142 O.3    42  HOH42      -0.4105
    125 H           6.3435    3.5194    6.1625 H       0  HOH0        0.2052
    126 H           6.5874    4.9866    5.8173 H       0  HOH0        0.2052
    127 O           7.2078    2.5199    8.6463 O.3    43  HOH43      -0.4105
    128 H           6.2817    2.6862    8.4148 H       0  HOH0        0.2052
    129 H           7.2460    2.6944    9.5987 H       0  HOH0        0.2052
    130 O           6.0311    6.0075    0.8730 O.3    44  HOH44      -0.4105
    131 H           5.5608    5.9961    1.7202 H       0  HOH0        0.2052
    132 H           6.8791    5.5822    1.0704 H       0  HOH0        0.2052
    133 O           7.3448    6.8486    3.8458 O.3    45  HOH45      -0.4105
    134 H           8.0834    7.4692    3.7553 H       0  HOH0        0.2052
    135 H           7.5250    6.1711    3.1769 H       0  HOH0        0.2052
    136 O           5.7004    7.3354    7.2232 O.3    46  HOH46      -0.4105
    137 H           5.3000    7.3779    8.1046 H       0  HOH0        0.2052
    138 H           5.3873    8.1409    6.7848 H       0  HOH0        0.2052
    139 O           7.1350    5.4371    9.4804 O.3    47  HOH47      -0.4105
    140 H           7.3786    5.4245   10.4182 H       0  HOH0        0.2052
    141 H           6.1749    5.5682    9.4897 H       0  HOH0        0.2052
    142 O           5.5903    7.0007   12.0661 O.3    48  HOH48      -0.4105
    143 H           6.0679    6.8848   12.9012 H       0  HOH0        0.2052
    144 H           5.4956    6.0993   11.7234 H       0  HOH0        0.2052
    145 O           6.7281    9.0354    1.3742 O.3    49  HOH49      -0.4105
    146 H           7.3983    9.4297    1.9525 H       0  HOH0        0.2052
    147 H           6.1454    8.5573    1.9832 H       0  HOH0        0.2052
    148 O           5.9777   10.3839    4.2623 O.3    50  HOH50      -0.4105
    149 H           6.2420   10.9116    3.4937 H       0  HOH0        0.2052
    150 H           6.4595    9.5506    4.1510 H       0  HOH0        0.2052
    151 O           8.0679    9.5008    6.7891 O.3    51  HOH51      -0.4105
    152 H           7.1854    9.6557    7.1582 H       0  HOH0        0.2052
    153 H           8.6071    9.2703    7.5605 H       0  HOH0        0.2052
    154 O           7.2223    8.7113   10.0473 O.3    52  HOH52      -0.4105
    155 H           7.3470    9.5929    9.6648 H       0  HOH0        0.2052
    156 H           7.2280    8.1201    9.2796 H       0  HOH0        0.2052
    157 O           7.4362   12.1234    8.3824 O.3    53  HOH53      -0.4105
    158 H           8.0087   11.7757    9.0826 H       0  HOH0        0.2052
    159 H           8.0056   12.7414    7.8999 H       0  HOH0        0.2052
    160 O          10.1001    0.9205   -0.7389 O.3    54  HOH54      -0.4105
    161 H           9.9522    0.1777   -0.1345 H       0  HOH0        0.2052
    162 H          10.5989    1.5590   -0.2074 H       0  HOH0        0.2052
    163 O           8.9408    1.9417    1.9291 O.3    55  HOH55      -0.4105
    164 H           9.5156    2.5545    2.4118 H       0  HOH0        0.2052
    165 H           8.5794    1.3664    2.6201 H       0  HOH0        0.2052
    166 O           9.4560    2.0820    5.1521 O.3    56  HOH56      -0.4105
    167 H          10.3353    2.3369    4.8346 H       0  HOH0        0.2052
    168 H           9.4017    1.1346    4.9556 H       0  HOH0        0.2052
    169 O          10.1987    0.3058    7.9174 O.3    57  HOH57      -0.4105
    170 H          10.1887    0.0606    8.8548 H       0  HOH0        0.2052
    171 H           9.4439    0.9064    7.8245 H       0  HOH0        0.2052
    172 O           9.5011    4.3529    0.1100 O.3    58  HOH58      -0.4105
    173 H          10.2305    3.8818    0.5402 H       0  HOH0        0.2052
    174 H           8.8364    4.4437    0.8092 H       0  HOH0        0.2052
    175 O          10.0327    4.9846    3.9255 O.3    59  HOH59      -0.4105
    176 H          10.7246    5.5802    3.6007 H       0  HOH0        0.2052
    177 H           9.5041    4.7882    3.1375 H       0  HOH0        0.2052
    178 O          10.0957    3.7772    7.5468 O.3    60  HOH60      -0.4105
    179 H          10.6698    3.0029    7.6459 H       0  HOH0        0.2052
    180 H          10.3494    4.3527    8.2839 H       0  HOH0        0.2052
    181 O           9.9050    2.6176   10.3665 O.3    61  HOH61      -0.4105
    182 H          10.2560    3.4943   10.5836 H       0  HOH0        0.2052
    183 H          10.6380    2.1784    9.9097 H       0  HOH0        0.2052
    184 O           9.3426    7.3131    1.1285 O.3    62  HOH62      -0.4105
    185 H           9.7039    6.8028    1.8688 H       0  HOH0        0.2052
    186 H           9.4207    8.2343    1.4189 H       0  HOH0        0.2052
    187 O          10.5274    8.3015    4.3887 O.3    63  HOH63      -0.4105
    188 H          10.3438    8.7714    3.5613 H       0  HOH0        0.2052
    189 H          11.4869    8.1669    4.3735 H       0  HOH0        0.2052
    190 O           8.9845    6.5249    6.5110 O.3    64  HOH64      -0.4105
    191 H           9.5997    7.2368    6.7426 H       0  HOH0        0.2052
    192 H           8.7204    6.1560    7.3671 H       0  HOH0        0.2052
    193 O           9.7170    7.1358    9.8019 O.3    65  HOH65      -0.4105
    194 H           9.7373    7.7827    9.0808 H       0  HOH0        0.2052
    195 H          10.0545    6.3229    9.3966 H       0  HOH0        0.2052
    196 O           8.9325    7.1009   12.9661 O.3    66  HOH66      -0.4105
    197 H           8.5667    6.5236   12.2793 H       0  HOH0        0.2052
    198 H           9.2812    7.8589   12.4735 H       0  HOH0        0.2052
    199 O           9.7925   11.9464    1.2018 O.3    67  HOH67      -0.4105
    200 H          10.1666   12.5559    1.8555 H       0  HOH0        0.2052
    201 H           9.8857   11.0746    1.6143 H       0  HOH0        0.2052
    202 O           8.8863   11.4009    4.2615 O.3    68  HOH68      -0.4105
    203 H           9.7642   11.7948    4.1464 H       0  HOH0        0.2052
    204 H           8.9027   10.6206    3.6871 H       0  HOH0        0.2052
    205 O          10.4554   11.3138    7.3036 O.3    69  HOH69      -0.4105
    206 H          10.1860   11.3912    8.2311 H       0  HOH0        0.2052
    207 H          10.0636   12.0924    6.8802 H       0  HOH0        0.2052
    208 O           9.7766   10.2223   10.9447 O.3    70  HOH70      -0.4105
    209 H           9.1685   10.9765   10.9633 H       0  HOH0        0.2052
    210 H           9.8245    9.9833   10.0068 H       0  HOH0        0.2052
    211 O          12.9535   -0.6342   -0.1520 O.3    71  HOH71      -0.4105
    212 H          12.8327    0.0241   -0.8527 H       0  HOH0        0.2052
    213 H          13.3828   -0.1397    0.5623 H       0  HOH0        0.2052
    214 O          11.1547    0.2023    2.4820 O.3    72  HOH72      -0.4105
    215 H          11.5593    0.7774    1.8153 H       0  HOH0        0.2052
    216 H          11.2941    0.6762    3.3156 H       0  HOH0        0.2052
    217 O          12.6349    1.1185    5.7468 O.3    73  HOH73      -0.4105
    218 H          12.1649    1.7228    6.3407 H       0  HOH0        0.2052
    219 H          13.1798    1.7043    5.2000 H       0  HOH0        0.2052
    220 O          12.0237   -0.3706   11.4775 O.3    74  HOH74      -0.4105
    221 H          12.1067    0.0455   12.3486 H       0  HOH0        0.2052
    222 H          11.4501    0.2338   10.9830 H       0  HOH0        0.2052
    223 O          13.1296    2.6954   -0.4035 O.3    75  HOH75      -0.4105
    224 H          13.2435    2.2636    0.4564 H       0  HOH0        0.2052
    225 H          12.2852    3.1633   -0.3205 H       0  HOH0        0.2052
    226 O          12.2822    3.1859    2.9413 O.3    76  HOH76      -0.4105
    227 H          13.1478    3.5759    2.7476 H       0  HOH0        0.2052
    228 H          11.8169    3.2152    2.0919 H       0  HOH0        0.2052
    229 O          12.6761    4.4085    5.6448 O.3    77  HOH77      -0.4105
    230 H          12.5002    4.1236    6.5541 H       0  HOH0        0.2052
    231 H          13.3611    5.0871    5.7405 H       0  HOH0        0.2052
    232 O          12.8092    4.6108    9.6191 O.3    78  HOH78      -0.4105
    233 H          12.0187    5.1669    9.6892 H       0  HOH0        0.2052
    234 H          12.4730    3.7676    9.2802 H       0  HOH0        0.2052
    235 O          12.6797    2.8105   12.2604 O.3    79  HOH79      -0.4105
    236 H          12.5263    2.4750   11.3644 H       0  HOH0        0.2052
    237 H          13.2305    3.5962   12.1251 H       0  HOH0        0.2052
    238 O          12.3656    5.6615    0.7148 O.3    80  HOH80      -0.4105
    239 H          11.8005    5.5925    1.4990 H       0  HOH0        0.2052
    240 H          13.1280    5.1020    0.9257 H       0  HOH0        0.2052
    241 O          12.1585    7.0572    7.4420 O.3    81  HOH81      -0.4105
    242 H          11.9932    6.8381    6.5127 H       0  HOH0        0.2052
    243 H          12.9609    6.5599    7.6606 H       0  HOH0        0.2052
    244 O          12.4700    8.1369   10.4733 O.3    82  HOH82      -0.4105
    245 H          12.9858    7.4196   10.0752 H       0  HOH0        0.2052
    246 H          12.0803    8.5947    9.7133 H       0  HOH0        0.2052
    247 O          11.8798    5.8546   12.8726 O.3    83  HOH83      -0.4105
    248 H          11.6662    5.6717   11.9453 H       0  HOH0        0.2052
    249 H          12.0278    6.8120   12.8943 H       0  HOH0        0.2052
    250 O          12.3546    8.6398    1.0949 O.3    84  HOH84      -0.4105
    251 H          11.8818    8.2414    1.8411 H       0  HOH0        0.2052
    252 H          13.2661    8.7232    1.4130 H       0  HOH0        0.2052
    253 O          12.2679   10.9760    3.1324 O.3    85  HOH85      -0.4105
    254 H          12.4763   10.0616    3.3758 H       0  HOH0        0.2052
    255 H          12.0325   11.3944    3.9741 H       0  HOH0        0.2052
    256 O          12.8724    9.7044    6.1717 O.3    86  HOH86      -0.4105
    257 H          12.7704   10.6654    6.1012 H       0  HOH0        0.2052
    258 H          13.4053    9.4681    5.3977 H       0  HOH0        0.2052
    259 O          12.6195   11.8212    9.8633 O.3    87  HOH87      -0.4105
    260 H          12.5229   12.2634    9.0065 H       0  HOH0        0.2052
    261 H          12.0577   11.0354    9.7859 H       0  HOH0        0.2052
>>>>>>> 038e334a388126d42b0fb0c2c05aa260f5dd3043
@<TRIPOS>BOND
     1     1     2    1
     2     1     3    1
     3     4     5    1
     4     4     6    1
     5     7     8    1
     6     7     9    1
     7    10    11    1
     8    10    12    1
     9    13    14    1
    10    13    15    1
    11    16    17    1
    12    16    18    1
    13    19    20    1
    14    19    21    1
    15    22    23    1
    16    22    24    1
    17    25    26    1
    18    25    27    1
    19    28    29    1
    20    28    30    1
    21    31    32    1
    22    31    33    1
    23    34    35    1
    24    34    36    1
    25    37    38    1
    26    37    39    1
    27    40    41    1
    28    40    42    1
    29    43    44    1
    30    43    45    1
    31    46    47    1
    32    46    48    1
    33    49    50    1
    34    49    51    1
    35    52    53    1
    36    52    54    1
    37    55    56    1
    38    55    57    1
    39    58    59    1
    40    58    60    1
    41    61    62    1
    42    61    63    1
    43    64    65    1
    44    64    66    1
    45    67    68    1
    46    67    69    1
    47    70    71    1
    48    70    72    1
    49    73    74    1
    50    73    75    1
    51    76    77    1
    52    76    78    1
    53    79    80    1
    54    79    81    1
    55    82    83    1
    56    82    84    1
    57    85    86    1
    58    85    87    1
    59    88    89    1
    60    88    90    1
    61    91    92    1
    62    91    93    1
    63    94    95    1
    64    94    96    1
    65    97    98    1
    66    97    99    1
    67   100   101    1
    68   100   102    1
    69   103   104    1
    70   103   105    1
    71   106   107    1
    72   106   108    1
    73   109   110    1
    74   109   111    1
    75   112   113    1
    76   112   114    1
    77   115   116    1
    78   115   117    1
    79   118   119    1
    80   118   120    1
    81   121   122    1
    82   121   123    1
    83   124   125    1
    84   124   126    1
    85   127   128    1
    86   127   129    1
    87   130   131    1
    88   130   132    1
    89   133   134    1
    90   133   135    1
    91   136   137    1
    92   136   138    1
    93   139   140    1
    94   139   141    1
    95   142   143    1
    96   142   144    1
    97   145   146    1
    98   145   147    1
    99   148   149    1
   100   148   150    1
   101   151   152    1
   102   151   153    1
   103   154   155    1
   104   154   156    1
   105   157   158    1
   106   157   159    1
   107   160   161    1
   108   160   162    1
   109   163   164    1
   110   163   165    1
   111   166   167    1
   112   166   168    1
   113   169   170    1
   114   169   171    1
   115   172   173    1
   116   172   174    1
   117   175   176    1
   118   175   177    1
   119   178   179    1
   120   178   180    1
   121   181   182    1
   122   181   183    1
   123   184   185    1
   124   184   186    1
   125   187   188    1
   126   187   189    1
   127   190   191    1
   128   190   192    1
   129   193   194    1
   130   193   195    1
   131   196   197    1
   132   196   198    1
   133   199   200    1
   134   199   201    1
   135   202   203    1
   136   202   204    1
   137   205   206    1
   138   205   207    1
   139   208   209    1
   140   208   210    1
   141   211   212    1
   142   211   213    1
   143   214   215    1
   144   214   216    1
   145   217   218    1
   146   217   219    1
   147   220   221    1
   148   220   222    1
   149   223   224    1
   150   223   225    1
   151   226   227    1
   152   226   228    1
   153   229   230    1
   154   229   231    1
   155   232   233    1
   156   232   234    1
   157   235   236    1
   158   235   237    1
   159   238   239    1
   160   238   240    1
   161   241   242    1
   162   241   243    1
   163   244   245    1
   164   244   246    1
   165   247   248    1
   166   247   249    1
   167   250   251    1
   168   250   252    1
   169   253   254    1
   170   253   255    1
   171   256   257    1
   172   256   258    1
   173   259   260    1
   174   259   261    1
<<<<<<< HEAD
   175   262   263    1
   176   262   264    1
   177   265   266    1
   178   265   267    1
   179   268   269    1
   180   268   270    1
   181   271   272    1
   182   271   273    1
   183   274   275    1
   184   274   276    1
   185   277   278    1
   186   277   279    1
   187   280   281    1
   188   280   282    1
   189   283   284    1
   190   283   285    1
   191   286   287    1
   192   286   288    1
   193   289   290    1
   194   289   291    1
   195   292   293    1
   196   292   294    1
   197   295   296    1
   198   295   297    1
   199   298   299    1
   200   298   300    1
   201   301   302    1
   202   301   303    1
   203   304   305    1
   204   304   306    1
   205   307   308    1
   206   307   309    1
   207   310   311    1
   208   310   312    1
   209   313   314    1
   210   313   315    1
   211   316   317    1
   212   316   318    1
   213   319   320    1
   214   319   321    1
   215   322   323    1
   216   322   324    1
   217   325   326    1
   218   325   327    1
   219   328   329    1
   220   328   330    1
   221   331   332    1
   222   331   333    1
   223   334   335    1
   224   334   336    1
   225   337   338    1
   226   337   339    1
   227   340   341    1
   228   340   342    1
   229   343   344    1
   230   343   345    1
   231   346   347    1
   232   346   348    1
   233   349   350    1
   234   349   351    1
   235   352   353    1
   236   352   354    1
   237   355   356    1
   238   355   357    1
   239   358   359    1
   240   358   360    1
   241   361   362    1
   242   361   363    1
   243   364   365    1
   244   364   366    1
   245   367   368    1
   246   367   369    1
   247   370   371    1
   248   370   372    1
   249   373   374    1
   250   373   375    1
=======
>>>>>>> 038e334a388126d42b0fb0c2c05aa260f5dd3043
