@<TRIPOS>MOLECULE
*****
 192 128 0 0 0
SMALL
GASTEIGER

@<TRIPOS>ATOM
      1 O           1.5200    1.5200    1.8169 O.3     1  HOH1       -0.4105
      2 H           1.7974    2.4129    2.0713 H       0  HOH0        0.2052
      3 H           2.1268    1.2817    1.1000 H       0  HOH0        0.2052
      4 O           1.5200    1.5200    5.1538 O.3     2  HOH2       -0.4105
      5 H           1.7974    2.4129    5.4082 H       0  HOH0        0.2052
      6 H           2.1268    1.2817    4.4369 H       0  HOH0        0.2052
      7 O           1.5200    1.5200    8.4907 O.3     3  HOH3       -0.4105
      8 H           1.7974    2.4129    8.7451 H       0  HOH0        0.2052
      9 H           2.1268    1.2817    7.7738 H       0  HOH0        0.2052
     10 O           1.5200    1.5200   11.8276 O.3     4  HOH4       -0.4105
     11 H           1.7974    2.4129   12.0820 H       0  HOH0        0.2052
     12 H           2.1268    1.2817   11.1107 H       0  HOH0        0.2052
     13 O           1.5200    5.0329    1.8169 O.3     5  HOH5       -0.4105
     14 H           1.7974    5.9258    2.0713 H       0  HOH0        0.2052
     15 H           2.1268    4.7946    1.1000 H       0  HOH0        0.2052
     16 O           1.5200    5.0329    5.1538 O.3     6  HOH6       -0.4105
     17 H           1.7974    5.9258    5.4082 H       0  HOH0        0.2052
     18 H           2.1268    4.7946    4.4369 H       0  HOH0        0.2052
     19 O           1.5200    5.0329    8.4907 O.3     7  HOH7       -0.4105
     20 H           1.7974    5.9258    8.7451 H       0  HOH0        0.2052
     21 H           2.1268    4.7946    7.7738 H       0  HOH0        0.2052
     22 O           1.5200    5.0329   11.8276 O.3     8  HOH8       -0.4105
     23 H           1.7974    5.9258   12.0820 H       0  HOH0        0.2052
     24 H           2.1268    4.7946   11.1107 H       0  HOH0        0.2052
     25 O           1.5200    8.5458    1.8169 O.3     9  HOH9       -0.4105
     26 H           1.7974    9.4387    2.0713 H       0  HOH0        0.2052
     27 H           2.1268    8.3075    1.1000 H       0  HOH0        0.2052
     28 O           1.5200    8.5458    5.1538 O.3    10  HOH10      -0.4105
     29 H           1.7974    9.4387    5.4082 H       0  HOH0        0.2052
     30 H           2.1268    8.3075    4.4369 H       0  HOH0        0.2052
     31 O           1.5200    8.5458    8.4907 O.3    11  HOH11      -0.4105
     32 H           1.7974    9.4387    8.7451 H       0  HOH0        0.2052
     33 H           2.1268    8.3075    7.7738 H       0  HOH0        0.2052
     34 O           1.5200    8.5458   11.8276 O.3    12  HOH12      -0.4105
     35 H           1.7974    9.4387   12.0820 H       0  HOH0        0.2052
     36 H           2.1268    8.3075   11.1107 H       0  HOH0        0.2052
     37 O           1.5200   12.0587    1.8169 O.3    13  HOH13      -0.4105
     38 H           1.7974   12.9516    2.0713 H       0  HOH0        0.2052
     39 H           2.1268   11.8204    1.1000 H       0  HOH0        0.2052
     40 O           1.5200   12.0587    5.1538 O.3    14  HOH14      -0.4105
     41 H           1.7974   12.9516    5.4082 H       0  HOH0        0.2052
     42 H           2.1268   11.8204    4.4369 H       0  HOH0        0.2052
     43 O           1.5200   12.0587    8.4907 O.3    15  HOH15      -0.4105
     44 H           1.7974   12.9516    8.7451 H       0  HOH0        0.2052
     45 H           2.1268   11.8204    7.7738 H       0  HOH0        0.2052
     46 O           1.5200   12.0587   11.8276 O.3    16  HOH16      -0.4105
     47 H           1.7974   12.9516   12.0820 H       0  HOH0        0.2052
     48 H           2.1268   11.8204   11.1107 H       0  HOH0        0.2052
     49 O           4.7468    1.5200    1.8169 O.3    17  HOH17      -0.4105
     50 H           5.0242    2.4129    2.0713 H       0  HOH0        0.2052
     51 H           5.3536    1.2817    1.1000 H       0  HOH0        0.2052
     52 O           4.7468    1.5200    5.1538 O.3    18  HOH18      -0.4105
     53 H           5.0242    2.4129    5.4082 H       0  HOH0        0.2052
     54 H           5.3536    1.2817    4.4369 H       0  HOH0        0.2052
     55 O           4.7468    1.5200    8.4907 O.3    19  HOH19      -0.4105
     56 H           5.0242    2.4129    8.7451 H       0  HOH0        0.2052
     57 H           5.3536    1.2817    7.7738 H       0  HOH0        0.2052
     58 O           4.7468    1.5200   11.8276 O.3    20  HOH20      -0.4105
     59 H           5.0242    2.4129   12.0820 H       0  HOH0        0.2052
     60 H           5.3536    1.2817   11.1107 H       0  HOH0        0.2052
     61 O           4.7468    5.0329    1.8169 O.3    21  HOH21      -0.4105
     62 H           5.0242    5.9258    2.0713 H       0  HOH0        0.2052
     63 H           5.3536    4.7946    1.1000 H       0  HOH0        0.2052
     64 O           4.7468    5.0329    5.1538 O.3    22  HOH22      -0.4105
     65 H           5.0242    5.9258    5.4082 H       0  HOH0        0.2052
     66 H           5.3536    4.7946    4.4369 H       0  HOH0        0.2052
     67 O           4.7468    5.0329    8.4907 O.3    23  HOH23      -0.4105
     68 H           5.0242    5.9258    8.7451 H       0  HOH0        0.2052
     69 H           5.3536    4.7946    7.7738 H       0  HOH0        0.2052
     70 O           4.7468    5.0329   11.8276 O.3    24  HOH24      -0.4105
     71 H           5.0242    5.9258   12.0820 H       0  HOH0        0.2052
     72 H           5.3536    4.7946   11.1107 H       0  HOH0        0.2052
     73 O           4.7468    8.5458    1.8169 O.3    25  HOH25      -0.4105
     74 H           5.0242    9.4387    2.0713 H       0  HOH0        0.2052
     75 H           5.3536    8.3075    1.1000 H       0  HOH0        0.2052
     76 O           4.7468    8.5458    5.1538 O.3    26  HOH26      -0.4105
     77 H           5.0242    9.4387    5.4082 H       0  HOH0        0.2052
     78 H           5.3536    8.3075    4.4369 H       0  HOH0        0.2052
     79 O           4.7468    8.5458    8.4907 O.3    27  HOH27      -0.4105
     80 H           5.0242    9.4387    8.7451 H       0  HOH0        0.2052
     81 H           5.3536    8.3075    7.7738 H       0  HOH0        0.2052
     82 O           4.7468    8.5458   11.8276 O.3    28  HOH28      -0.4105
     83 H           5.0242    9.4387   12.0820 H       0  HOH0        0.2052
     84 H           5.3536    8.3075   11.1107 H       0  HOH0        0.2052
     85 O           4.7468   12.0587    1.8169 O.3    29  HOH29      -0.4105
     86 H           5.0242   12.9516    2.0713 H       0  HOH0        0.2052
     87 H           5.3536   11.8204    1.1000 H       0  HOH0        0.2052
     88 O           4.7468   12.0587    5.1538 O.3    30  HOH30      -0.4105
     89 H           5.0242   12.9516    5.4082 H       0  HOH0        0.2052
     90 H           5.3536   11.8204    4.4369 H       0  HOH0        0.2052
     91 O           4.7468   12.0587    8.4907 O.3    31  HOH31      -0.4105
     92 H           5.0242   12.9516    8.7451 H       0  HOH0        0.2052
     93 H           5.3536   11.8204    7.7738 H       0  HOH0        0.2052
     94 O           4.7468   12.0587   11.8276 O.3    32  HOH32      -0.4105
     95 H           5.0242   12.9516   12.0820 H       0  HOH0        0.2052
     96 H           5.3536   11.8204   11.1107 H       0  HOH0        0.2052
     97 O           7.9736    1.5200    1.8169 O.3    33  HOH33      -0.4105
     98 H           8.2510    2.4129    2.0713 H       0  HOH0        0.2052
     99 H           8.5804    1.2817    1.1000 H       0  HOH0        0.2052
    100 O           7.9736    1.5200    5.1538 O.3    34  HOH34      -0.4105
    101 H           8.2510    2.4129    5.4082 H       0  HOH0        0.2052
    102 H           8.5804    1.2817    4.4369 H       0  HOH0        0.2052
    103 O           7.9736    1.5200    8.4907 O.3    35  HOH35      -0.4105
    104 H           8.2510    2.4129    8.7451 H       0  HOH0        0.2052
    105 H           8.5804    1.2817    7.7738 H       0  HOH0        0.2052
    106 O           7.9736    1.5200   11.8276 O.3    36  HOH36      -0.4105
    107 H           8.2510    2.4129   12.0820 H       0  HOH0        0.2052
    108 H           8.5804    1.2817   11.1107 H       0  HOH0        0.2052
    109 O           7.9736    5.0329    1.8169 O.3    37  HOH37      -0.4105
    110 H           8.2510    5.9258    2.0713 H       0  HOH0        0.2052
    111 H           8.5804    4.7946    1.1000 H       0  HOH0        0.2052
    112 O           7.9736    5.0329    5.1538 O.3    38  HOH38      -0.4105
    113 H           8.2510    5.9258    5.4082 H       0  HOH0        0.2052
    114 H           8.5804    4.7946    4.4369 H       0  HOH0        0.2052
    115 O           7.9736    5.0329    8.4907 O.3    39  HOH39      -0.4105
    116 H           8.2510    5.9258    8.7451 H       0  HOH0        0.2052
    117 H           8.5804    4.7946    7.7738 H       0  HOH0        0.2052
    118 O           7.9736    5.0329   11.8276 O.3    40  HOH40      -0.4105
    119 H           8.2510    5.9258   12.0820 H       0  HOH0        0.2052
    120 H           8.5804    4.7946   11.1107 H       0  HOH0        0.2052
    121 O           7.9736    8.5458    1.8169 O.3    41  HOH41      -0.4105
    122 H           8.2510    9.4387    2.0713 H       0  HOH0        0.2052
    123 H           8.5804    8.3075    1.1000 H       0  HOH0        0.2052
    124 O           7.9736    8.5458    5.1538 O.3    42  HOH42      -0.4105
    125 H           8.2510    9.4387    5.4082 H       0  HOH0        0.2052
    126 H           8.5804    8.3075    4.4369 H       0  HOH0        0.2052
    127 O           7.9736    8.5458    8.4907 O.3    43  HOH43      -0.4105
    128 H           8.2510    9.4387    8.7451 H       0  HOH0        0.2052
    129 H           8.5804    8.3075    7.7738 H       0  HOH0        0.2052
    130 O           7.9736    8.5458   11.8276 O.3    44  HOH44      -0.4105
    131 H           8.2510    9.4387   12.0820 H       0  HOH0        0.2052
    132 H           8.5804    8.3075   11.1107 H       0  HOH0        0.2052
    133 O           7.9736   12.0587    1.8169 O.3    45  HOH45      -0.4105
    134 H           8.2510   12.9516    2.0713 H       0  HOH0        0.2052
    135 H           8.5804   11.8204    1.1000 H       0  HOH0        0.2052
    136 O           7.9736   12.0587    5.1538 O.3    46  HOH46      -0.4105
    137 H           8.2510   12.9516    5.4082 H       0  HOH0        0.2052
    138 H           8.5804   11.8204    4.4369 H       0  HOH0        0.2052
    139 O           7.9736   12.0587    8.4907 O.3    47  HOH47      -0.4105
    140 H           8.2510   12.9516    8.7451 H       0  HOH0        0.2052
    141 H           8.5804   11.8204    7.7738 H       0  HOH0        0.2052
    142 O           7.9736   12.0587   11.8276 O.3    48  HOH48      -0.4105
    143 H           8.2510   12.9516   12.0820 H       0  HOH0        0.2052
    144 H           8.5804   11.8204   11.1107 H       0  HOH0        0.2052
    145 O          11.2004    1.5200    1.8169 O.3    49  HOH49      -0.4105
    146 H          11.4778    2.4129    2.0713 H       0  HOH0        0.2052
    147 H          11.8072    1.2817    1.1000 H       0  HOH0        0.2052
    148 O          11.2004    1.5200    5.1538 O.3    50  HOH50      -0.4105
    149 H          11.4778    2.4129    5.4082 H       0  HOH0        0.2052
    150 H          11.8072    1.2817    4.4369 H       0  HOH0        0.2052
    151 O          11.2004    1.5200    8.4907 O.3    51  HOH51      -0.4105
    152 H          11.4778    2.4129    8.7451 H       0  HOH0        0.2052
    153 H          11.8072    1.2817    7.7738 H       0  HOH0        0.2052
    154 O          11.2004    1.5200   11.8276 O.3    52  HOH52      -0.4105
    155 H          11.4778    2.4129   12.0820 H       0  HOH0        0.2052
    156 H          11.8072    1.2817   11.1107 H       0  HOH0        0.2052
    157 O          11.2004    5.0329    1.8169 O.3    53  HOH53      -0.4105
    158 H          11.4778    5.9258    2.0713 H       0  HOH0        0.2052
    159 H          11.8072    4.7946    1.1000 H       0  HOH0        0.2052
    160 O          11.2004    5.0329    5.1538 O.3    54  HOH54      -0.4105
    161 H          11.4778    5.9258    5.4082 H       0  HOH0        0.2052
    162 H          11.8072    4.7946    4.4369 H       0  HOH0        0.2052
    163 O          11.2004    5.0329    8.4907 O.3    55  HOH55      -0.4105
    164 H          11.4778    5.9258    8.7451 H       0  HOH0        0.2052
    165 H          11.8072    4.7946    7.7738 H       0  HOH0        0.2052
    166 O          11.2004    5.0329   11.8276 O.3    56  HOH56      -0.4105
    167 H          11.4778    5.9258   12.0820 H       0  HOH0        0.2052
    168 H          11.8072    4.7946   11.1107 H       0  HOH0        0.2052
    169 O          11.2004    8.5458    1.8169 O.3    57  HOH57      -0.4105
    170 H          11.4778    9.4387    2.0713 H       0  HOH0        0.2052
    171 H          11.8072    8.3075    1.1000 H       0  HOH0        0.2052
    172 O          11.2004    8.5458    5.1538 O.3    58  HOH58      -0.4105
    173 H          11.4778    9.4387    5.4082 H       0  HOH0        0.2052
    174 H          11.8072    8.3075    4.4369 H       0  HOH0        0.2052
    175 O          11.2004    8.5458    8.4907 O.3    59  HOH59      -0.4105
    176 H          11.4778    9.4387    8.7451 H       0  HOH0        0.2052
    177 H          11.8072    8.3075    7.7738 H       0  HOH0        0.2052
    178 O          11.2004    8.5458   11.8276 O.3    60  HOH60      -0.4105
    179 H          11.4778    9.4387   12.0820 H       0  HOH0        0.2052
    180 H          11.8072    8.3075   11.1107 H       0  HOH0        0.2052
    181 O          11.2004   12.0587    1.8169 O.3    61  HOH61      -0.4105
    182 H          11.4778   12.9516    2.0713 H       0  HOH0        0.2052
    183 H          11.8072   11.8204    1.1000 H       0  HOH0        0.2052
    184 O          11.2004   12.0587    5.1538 O.3    62  HOH62      -0.4105
    185 H          11.4778   12.9516    5.4082 H       0  HOH0        0.2052
    186 H          11.8072   11.8204    4.4369 H       0  HOH0        0.2052
    187 O          11.2004   12.0587    8.4907 O.3    63  HOH63      -0.4105
    188 H          11.4778   12.9516    8.7451 H       0  HOH0        0.2052
    189 H          11.8072   11.8204    7.7738 H       0  HOH0        0.2052
    190 O          11.2004   12.0587   11.8276 O.3    64  HOH64      -0.4105
    191 H          11.4778   12.9516   12.0820 H       0  HOH0        0.2052
    192 H          11.8072   11.8204   11.1107 H       0  HOH0        0.2052
@<TRIPOS>BOND
     1     1     2    1
     2     1     3    1
     3     4     5    1
     4     4     6    1
     5     7     8    1
     6     7     9    1
     7    10    11    1
     8    10    12    1
     9    13    14    1
    10    13    15    1
    11    16    17    1
    12    16    18    1
    13    19    20    1
    14    19    21    1
    15    22    23    1
    16    22    24    1
    17    25    26    1
    18    25    27    1
    19    28    29    1
    20    28    30    1
    21    31    32    1
    22    31    33    1
    23    34    35    1
    24    34    36    1
    25    37    38    1
    26    37    39    1
    27    40    41    1
    28    40    42    1
    29    43    44    1
    30    43    45    1
    31    46    47    1
    32    46    48    1
    33    49    50    1
    34    49    51    1
    35    52    53    1
    36    52    54    1
    37    55    56    1
    38    55    57    1
    39    58    59    1
    40    58    60    1
    41    61    62    1
    42    61    63    1
    43    64    65    1
    44    64    66    1
    45    67    68    1
    46    67    69    1
    47    70    71    1
    48    70    72    1
    49    73    74    1
    50    73    75    1
    51    76    77    1
    52    76    78    1
    53    79    80    1
    54    79    81    1
    55    82    83    1
    56    82    84    1
    57    85    86    1
    58    85    87    1
    59    88    89    1
    60    88    90    1
    61    91    92    1
    62    91    93    1
    63    94    95    1
    64    94    96    1
    65    97    98    1
    66    97    99    1
    67   100   101    1
    68   100   102    1
    69   103   104    1
    70   103   105    1
    71   106   107    1
    72   106   108    1
    73   109   110    1
    74   109   111    1
    75   112   113    1
    76   112   114    1
    77   115   116    1
    78   115   117    1
    79   118   119    1
    80   118   120    1
    81   121   122    1
    82   121   123    1
    83   124   125    1
    84   124   126    1
    85   127   128    1
    86   127   129    1
    87   130   131    1
    88   130   132    1
    89   133   134    1
    90   133   135    1
    91   136   137    1
    92   136   138    1
    93   139   140    1
    94   139   141    1
    95   142   143    1
    96   142   144    1
    97   145   146    1
    98   145   147    1
    99   148   149    1
   100   148   150    1
   101   151   152    1
   102   151   153    1
   103   154   155    1
   104   154   156    1
   105   157   158    1
   106   157   159    1
   107   160   161    1
   108   160   162    1
   109   163   164    1
   110   163   165    1
   111   166   167    1
   112   166   168    1
   113   169   170    1
   114   169   171    1
   115   172   173    1
   116   172   174    1
   117   175   176    1
   118   175   177    1
   119   178   179    1
   120   178   180    1
   121   181   182    1
   122   181   183    1
   123   184   185    1
   124   184   186    1
   125   187   188    1
   126   187   189    1
   127   190   191    1
   128   190   192    1
