@<TRIPOS>MOLECULE
*****
 78 52 0 0 0
SMALL
GASTEIGER

@<TRIPOS>ATOM
      1 O           1.0111   -0.6263   -0.0729 O.3     1  HOH1       -0.4105
      2 H           1.0032    0.1503    0.5066 H       0  HOH0        0.2052
      3 H           1.7528   -0.4621   -0.6744 H       0  HOH0        0.2052
      4 O           1.2808   -0.5077    3.1830 O.3     2  HOH2       -0.4105
      5 H           1.9390    0.0067    2.6920 H       0  HOH0        0.2052
      6 H           0.5406    0.1072    3.2969 H       0  HOH0        0.2052
      7 O           1.4811    1.3177    5.8256 O.3     3  HOH3       -0.4105
      8 H           2.0842    1.5861    5.1162 H       0  HOH0        0.2052
      9 H           1.7675    1.8433    6.5876 H       0  HOH0        0.2052
     10 O           1.1452    2.4730   -1.1590 O.3     4  HOH4       -0.4105
     11 H           1.2661    3.4172   -0.9781 H       0  HOH0        0.2052
     12 H           1.8396    2.0438   -0.6370 H       0  HOH0        0.2052
     13 O           0.9226    2.5815    2.0559 O.3     5  HOH5       -0.4105
     14 H           1.1354    3.5121    2.2225 H       0  HOH0        0.2052
     15 H           1.7763    2.1832    1.8292 H       0  HOH0        0.2052
     16 O           0.5188    4.2816    5.1292 O.3     6  HOH6       -0.4105
     17 H           1.1715    3.7306    4.6717 H       0  HOH0        0.2052
     18 H           1.0553    4.9283    5.6117 H       0  HOH0        0.2052
     19 O           0.5075    5.7927    0.3220 O.3     7  HOH7       -0.4105
     20 H           1.2314    5.2058    0.5875 H       0  HOH0        0.2052
     21 H           0.7446    6.6478    0.7112 H       0  HOH0        0.2052
     22 O           1.7006    6.5125    3.3571 O.3     8  HOH8       -0.4105
     23 H           0.8626    6.7462    3.7838 H       0  HOH0        0.2052
     24 H           1.5197    5.6576    2.9383 H       0  HOH0        0.2052
     25 O           0.6381    7.7400    6.2759 O.3     9  HOH9       -0.4105
     26 H           1.3557    8.3471    6.0404 H       0  HOH0        0.2052
     27 H           1.0745    7.0561    6.8058 H       0  HOH0        0.2052
     28 O           3.8528    0.7571    0.7791 O.3    10  HOH10      -0.4105
     29 H           4.4468    1.1810    1.4166 H       0  HOH0        0.2052
     30 H           3.8846   -0.1815    1.0177 H       0  HOH0        0.2052
     31 O           4.3937    0.7054    4.1766 O.3    11  HOH11      -0.4105
     32 H           4.1350   -0.0056    3.5712 H       0  HOH0        0.2052
     33 H           5.1808    1.0904    3.7627 H       0  HOH0        0.2052
     34 O           3.8892    3.7796    0.1107 O.3    12  HOH12      -0.4105
     35 H           3.1050    3.7949    0.6797 H       0  HOH0        0.2052
     36 H           4.6255    3.9280    0.7228 H       0  HOH0        0.2052
     37 O           3.6475    3.9475    3.4587 O.3    13  HOH13      -0.4105
     38 H           4.0542    4.6212    2.8932 H       0  HOH0        0.2052
     39 H           3.6759    3.1421    2.9207 H       0  HOH0        0.2052
     40 O           3.4855    4.1874    6.5466 O.3    14  HOH14      -0.4105
     41 H           3.4647    3.3443    6.0695 H       0  HOH0        0.2052
     42 H           4.2192    4.0849    7.1712 H       0  HOH0        0.2052
     43 O           3.5588    6.9765    0.9513 O.3    15  HOH15      -0.4105
     44 H           3.3257    6.3839    0.2209 H       0  HOH0        0.2052
     45 H           4.1908    6.4631    1.4766 H       0  HOH0        0.2052
     46 O           4.3606    8.0305    4.0757 O.3    16  HOH16      -0.4105
     47 H           4.3997    8.4480    3.2022 H       0  HOH0        0.2052
     48 H           4.3914    7.0813    3.8831 H       0  HOH0        0.2052
     49 O           3.8732    7.2589    7.1749 O.3    17  HOH17      -0.4105
     50 H           3.4433    8.1230    7.2616 H       0  HOH0        0.2052
     51 H           3.4565    6.8676    6.3925 H       0  HOH0        0.2052
     52 O           6.5288   -1.2632   -0.8780 O.3    18  HOH18      -0.4105
     53 H           5.7555   -0.8878   -0.4307 H       0  HOH0        0.2052
     54 H           7.2819   -0.8971   -0.3904 H       0  HOH0        0.2052
     55 O           6.7577   -0.6617    2.2476 O.3    19  HOH19      -0.4105
     56 H           5.8137   -0.8171    2.0940 H       0  HOH0        0.2052
     57 H           6.8538    0.2988    2.1624 H       0  HOH0        0.2052
     58 O           7.0003   -0.0716    5.6141 O.3    20  HOH20      -0.4105
     59 H           7.5998    0.4170    6.1979 H       0  HOH0        0.2052
     60 H           7.5736   -0.3830    4.8976 H       0  HOH0        0.2052
     61 O           6.5349    2.0450   -0.5718 O.3    21  HOH21      -0.4105
     62 H           6.6261    2.9019   -0.1287 H       0  HOH0        0.2052
     63 H           6.5867    1.4013    0.1506 H       0  HOH0        0.2052
     64 O           6.5908    3.1621    2.6978 O.3    22  HOH22      -0.4105
     65 H           5.9790    2.6490    2.1488 H       0  HOH0        0.2052
     66 H           7.2518    2.5127    2.9813 H       0  HOH0        0.2052
     67 O           6.4188    2.9628    5.8677 O.3    23  HOH23      -0.4105
     68 H           5.6708    2.8816    5.2571 H       0  HOH0        0.2052
     69 H           7.1876    2.7214    5.3295 H       0  HOH0        0.2052
     70 O           6.2206    5.7706   -0.6187 O.3    24  HOH24      -0.4105
     71 H           6.1157    6.6399   -0.2038 H       0  HOH0        0.2052
     72 H           6.6521    5.2357    0.0643 H       0  HOH0        0.2052
     73 O           6.8274    6.4088    2.5283 O.3    25  HOH25      -0.4105
     74 H           7.0967    7.3039    2.7835 H       0  HOH0        0.2052
     75 H           7.5238    5.8420    2.8924 H       0  HOH0        0.2052
     76 O           6.4843    6.0904    5.5992 O.3    26  HOH26      -0.4105
     77 H           6.7827    6.9488    5.2629 H       0  HOH0        0.2052
     78 H           7.3006    5.6554    5.8878 H       0  HOH0        0.2052
@<TRIPOS>BOND
     1     1     2    1
     2     1     3    1
     3     4     5    1
     4     4     6    1
     5     7     8    1
     6     7     9    1
     7    10    11    1
     8    10    12    1
     9    13    14    1
    10    13    15    1
    11    16    17    1
    12    16    18    1
    13    19    20    1
    14    19    21    1
    15    22    23    1
    16    22    24    1
    17    25    26    1
    18    25    27    1
    19    28    29    1
    20    28    30    1
    21    31    32    1
    22    31    33    1
    23    34    35    1
    24    34    36    1
    25    37    38    1
    26    37    39    1
    27    40    41    1
    28    40    42    1
    29    43    44    1
    30    43    45    1
    31    46    47    1
    32    46    48    1
    33    49    50    1
    34    49    51    1
    35    52    53    1
    36    52    54    1
    37    55    56    1
    38    55    57    1
    39    58    59    1
    40    58    60    1
    41    61    62    1
    42    61    63    1
    43    64    65    1
    44    64    66    1
    45    67    68    1
    46    67    69    1
    47    70    71    1
    48    70    72    1
    49    73    74    1
    50    73    75    1
    51    76    77    1
    52    76    78    1
