@<TRIPOS>MOLECULE
*****
 261 174 0 0 0
SMALL
GASTEIGER

@<TRIPOS>ATOM
      1 O           1.5187   -0.3136    0.7139 O.3     1  HOH1       -0.4105
      2 H           2.2811   -0.1558    1.2908 H       0  HOH0        0.2052
      3 H           1.0895    0.5529    0.6509 H       0  HOH0        0.2052
      4 O           1.4516    1.0512    3.8501 O.3     2  HOH2       -0.4105
      5 H           1.9820    1.8397    3.6611 H       0  HOH0        0.2052
      6 H           0.8711    0.9691    3.0786 H       0  HOH0        0.2052
      7 O           1.4172    1.6437    7.1869 O.3     3  HOH3       -0.4105
      8 H           2.1684    2.1549    7.5235 H       0  HOH0        0.2052
      9 H           0.6519    2.0237    7.6440 H       0  HOH0        0.2052
     10 O           1.3562    1.1212   10.1176 O.3     4  HOH4       -0.4105
     11 H           1.7101    0.2809    9.7897 H       0  HOH0        0.2052
     12 H           2.1053    1.7322   10.0521 H       0  HOH0        0.2052
     13 O           1.3195    2.4865   -1.6893 O.3     5  HOH5       -0.4105
     14 H           1.0235    3.3365   -1.3304 H       0  HOH0        0.2052
     15 H           1.8407    2.0977   -0.9708 H       0  HOH0        0.2052
     16 O           0.9164    3.2802    1.4462 O.3     6  HOH6       -0.4105
     17 H           1.6749    2.6779    1.4150 H       0  HOH0        0.2052
     18 H           1.2967    4.1466    1.2371 H       0  HOH0        0.2052
     19 O           1.3546    4.3218    5.5241 O.3     7  HOH7       -0.4105
     20 H           1.6635    5.1329    5.9549 H       0  HOH0        0.2052
     21 H           2.1601    3.7949    5.4121 H       0  HOH0        0.2052
     22 O           1.2162    4.3938    9.0173 O.3     8  HOH8       -0.4105
     23 H           1.9881    4.0365    9.4815 H       0  HOH0        0.2052
     24 H           1.5977    4.9672    8.3357 H       0  HOH0        0.2052
     25 O           0.3864    6.5421    0.2388 O.3     9  HOH9       -0.4105
     26 H           0.0686    7.2179    0.8562 H       0  HOH0        0.2052
     27 H           1.3230    6.4399    0.4652 H       0  HOH0        0.2052
     28 O           1.2174    6.6251    3.4155 O.3    10  HOH10      -0.4105
     29 H           1.5858    7.4782    3.1410 H       0  HOH0        0.2052
     30 H           1.7299    5.9756    2.9110 H       0  HOH0        0.2052
     31 O          -0.6371    6.6684    6.6078 O.3    11  HOH11      -0.4105
     32 H          -0.0758    6.9108    5.8560 H       0  HOH0        0.2052
     33 H          -0.0157    6.3048    7.2563 H       0  HOH0        0.2052
     34 O           0.4379    8.0587    9.6071 O.3    12  HOH12      -0.4105
     35 H           0.6236    7.1330    9.3890 H       0  HOH0        0.2052
     36 H           1.3146    8.4689    9.6528 H       0  HOH0        0.2052
     37 O           1.1520    9.9363   -0.2248 O.3    13  HOH13      -0.4105
     38 H           1.2803   10.7863    0.2225 H       0  HOH0        0.2052
     39 H           1.2272    9.2835    0.4873 H       0  HOH0        0.2052
     40 O           0.4998   10.7505    2.9604 O.3    14  HOH14      -0.4105
     41 H           1.2253   11.3829    3.0730 H       0  HOH0        0.2052
     42 H           0.9466    9.8954    2.8697 H       0  HOH0        0.2052
     43 O           0.3773    9.8577    6.0640 O.3    15  HOH15      -0.4105
     44 H           1.2792   10.0735    6.3452 H       0  HOH0        0.2052
     45 H           0.4978    9.1475    5.4159 H       0  HOH0        0.2052
     46 O           1.6943   11.3847    9.0727 O.3    16  HOH16      -0.4105
     47 H           1.9470   12.0831    8.4502 H       0  HOH0        0.2052
     48 H           1.7654   10.5704    8.5523 H       0  HOH0        0.2052
     49 O           1.4609   10.0283   12.0755 O.3    17  HOH17      -0.4105
     50 H           1.4139    9.7338   12.9974 H       0  HOH0        0.2052
     51 H           2.2296    9.5585   11.7186 H       0  HOH0        0.2052
     52 O           4.2253    0.7948   -0.6154 O.3    18  HOH18      -0.4105
     53 H           3.9669    1.5214   -0.0287 H       0  HOH0        0.2052
     54 H           4.3816    0.0519   -0.0133 H       0  HOH0        0.2052
     55 O           4.5011    0.5340    2.8504 O.3    19  HOH19      -0.4105
     56 H           4.0280    1.1819    2.3069 H       0  HOH0        0.2052
     57 H           4.8512   -0.1003    2.2069 H       0  HOH0        0.2052
     58 O           4.0474    1.9463    5.4149 O.3    20  HOH20      -0.4105
     59 H           4.2304    2.0773    6.3574 H       0  HOH0        0.2052
     60 H           4.4910    2.6925    4.9844 H       0  HOH0        0.2052
     61 O           4.5328    0.6641    8.9293 O.3    21  HOH21      -0.4105
     62 H           5.2312    0.7480    9.5958 H       0  HOH0        0.2052
     63 H           4.1539    1.5542    8.8740 H       0  HOH0        0.2052
     64 O           4.0231    0.5381   12.3755 O.3    22  HOH22      -0.4105
     65 H           4.1055    1.2312   13.0477 H       0  HOH0        0.2052
     66 H           3.6658    1.0021   11.6035 H       0  HOH0        0.2052
     67 O           3.4516    4.6240   -0.5687 O.3    23  HOH23      -0.4105
     68 H           3.4030    3.7422   -0.1698 H       0  HOH0        0.2052
     69 H           3.3001    5.2261    0.1752 H       0  HOH0        0.2052
     70 O           3.7200    4.1763    2.6445 O.3    24  HOH24      -0.4105
     71 H           3.8877    3.4229    2.0586 H       0  HOH0        0.2052
     72 H           3.0308    3.8562    3.2458 H       0  HOH0        0.2052
     73 O           4.2765    4.5183    7.6432 O.3    25  HOH25      -0.4105
     74 H           4.1244    4.4263    6.6906 H       0  HOH0        0.2052
     75 H           3.8907    3.7136    8.0206 H       0  HOH0        0.2052
     76 O           4.8400    3.5366   10.7775 O.3    26  HOH26      -0.4105
     77 H           3.9440    3.3645   10.4512 H       0  HOH0        0.2052
     78 H           4.8584    3.1095   11.6471 H       0  HOH0        0.2052
     79 O           3.5697    7.9160    0.9760 O.3    27  HOH27      -0.4105
     80 H           3.3368    7.1490    1.5204 H       0  HOH0        0.2052
     81 H           3.5774    7.5676    0.0718 H       0  HOH0        0.2052
     82 O           4.3565    6.3939    4.5879 O.3    28  HOH28      -0.4105
     83 H           4.0907    6.6804    3.7013 H       0  HOH0        0.2052
     84 H           3.5824    5.9159    4.9214 H       0  HOH0        0.2052
     85 O           2.4760    7.5944    7.1076 O.3    29  HOH29      -0.4105
     86 H           2.8583    6.7130    7.2334 H       0  HOH0        0.2052
     87 H           2.1996    7.5993    6.1789 H       0  HOH0        0.2052
     88 O           3.2026    6.4863   10.1828 O.3    30  HOH30      -0.4105
     89 H           3.9310    6.1771    9.6236 H       0  HOH0        0.2052
     90 H           3.1891    5.8564   10.9191 H       0  HOH0        0.2052
     91 O           3.8720   11.0119    1.4840 O.3    31  HOH31      -0.4105
     92 H           3.0107   10.6308    1.7116 H       0  HOH0        0.2052
     93 H           4.5018   10.5003    2.0136 H       0  HOH0        0.2052
     94 O           3.1823    9.2921    4.3236 O.3    32  HOH32      -0.4105
     95 H           3.0748   10.2471    4.2000 H       0  HOH0        0.2052
     96 H           3.4272    8.9682    3.4438 H       0  HOH0        0.2052
     97 O           4.0271   11.0867    6.7359 O.3    33  HOH33      -0.4105
     98 H           3.2076   11.5124    6.4423 H       0  HOH0        0.2052
     99 H           3.7666   10.1689    6.9049 H       0  HOH0        0.2052
    100 O           4.2161    9.5351    9.6001 O.3    34  HOH34      -0.4105
    101 H           4.9436    9.6301    8.9671 H       0  HOH0        0.2052
    102 H           3.5553    9.0130    9.1208 H       0  HOH0        0.2052
    103 O           7.1577   -0.1552    0.4785 O.3    35  HOH35      -0.4105
    104 H           7.2184    0.2745   -0.3879 H       0  HOH0        0.2052
    105 H           6.7290    0.5085    1.0395 H       0  HOH0        0.2052
    106 O           7.5009   -1.0368    3.6419 O.3    36  HOH36      -0.4105
    107 H           7.0598   -0.2078    3.4030 H       0  HOH0        0.2052
    108 H           8.1371   -0.7753    4.3244 H       0  HOH0        0.2052
    109 O           6.5925    0.7186    6.2110 O.3    37  HOH37      -0.4105
    110 H           6.7049    1.1139    5.3335 H       0  HOH0        0.2052
    111 H           7.4987    0.5491    6.5092 H       0  HOH0        0.2052
    112 O           7.4111   -1.0662    8.9560 O.3    38  HOH38      -0.4105
    113 H           7.4931   -0.1051    9.0484 H       0  HOH0        0.2052
    114 H           7.9414   -1.2721    8.1717 H       0  HOH0        0.2052
    115 O           6.9103    1.3311   11.8830 O.3    39  HOH39      -0.4105
    116 H           7.6471    1.9454   11.7464 H       0  HOH0        0.2052
    117 H           7.1258    0.5768   11.3142 H       0  HOH0        0.2052
    118 O           6.3226    3.1016   -0.1316 O.3    40  HOH40      -0.4105
    119 H           5.8548    2.9614    0.7053 H       0  HOH0        0.2052
    120 H           7.1738    2.6574   -0.0013 H       0  HOH0        0.2052
    121 O           6.5527    3.4156    3.2539 O.3    41  HOH41      -0.4105
    122 H           7.1878    3.8776    2.6864 H       0  HOH0        0.2052
    123 H           7.1027    2.8181    3.7826 H       0  HOH0        0.2052
    124 O           7.0452    4.1859    6.1142 O.3    42  HOH42      -0.4105
    125 H           6.3435    3.5194    6.1625 H       0  HOH0        0.2052
    126 H           6.5874    4.9866    5.8173 H       0  HOH0        0.2052
    127 O           7.2078    2.5199    8.6463 O.3    43  HOH43      -0.4105
    128 H           6.2817    2.6862    8.4148 H       0  HOH0        0.2052
    129 H           7.2460    2.6944    9.5987 H       0  HOH0        0.2052
    130 O           6.0311    6.0075    0.8730 O.3    44  HOH44      -0.4105
    131 H           5.5608    5.9961    1.7202 H       0  HOH0        0.2052
    132 H           6.8791    5.5822    1.0704 H       0  HOH0        0.2052
    133 O           7.3448    6.8486    3.8458 O.3    45  HOH45      -0.4105
    134 H           8.0834    7.4692    3.7553 H       0  HOH0        0.2052
    135 H           7.5250    6.1711    3.1769 H       0  HOH0        0.2052
    136 O           5.7004    7.3354    7.2232 O.3    46  HOH46      -0.4105
    137 H           5.3000    7.3779    8.1046 H       0  HOH0        0.2052
    138 H           5.3873    8.1409    6.7848 H       0  HOH0        0.2052
    139 O           7.1350    5.4371    9.4804 O.3    47  HOH47      -0.4105
    140 H           7.3786    5.4245   10.4182 H       0  HOH0        0.2052
    141 H           6.1749    5.5682    9.4897 H       0  HOH0        0.2052
    142 O           5.5903    7.0007   12.0661 O.3    48  HOH48      -0.4105
    143 H           6.0679    6.8848   12.9012 H       0  HOH0        0.2052
    144 H           5.4956    6.0993   11.7234 H       0  HOH0        0.2052
    145 O           6.7281    9.0354    1.3742 O.3    49  HOH49      -0.4105
    146 H           7.3983    9.4297    1.9525 H       0  HOH0        0.2052
    147 H           6.1454    8.5573    1.9832 H       0  HOH0        0.2052
    148 O           5.9777   10.3839    4.2623 O.3    50  HOH50      -0.4105
    149 H           6.2420   10.9116    3.4937 H       0  HOH0        0.2052
    150 H           6.4595    9.5506    4.1510 H       0  HOH0        0.2052
    151 O           8.0679    9.5008    6.7891 O.3    51  HOH51      -0.4105
    152 H           7.1854    9.6557    7.1582 H       0  HOH0        0.2052
    153 H           8.6071    9.2703    7.5605 H       0  HOH0        0.2052
    154 O           7.2223    8.7113   10.0473 O.3    52  HOH52      -0.4105
    155 H           7.3470    9.5929    9.6648 H       0  HOH0        0.2052
    156 H           7.2280    8.1201    9.2796 H       0  HOH0        0.2052
    157 O           7.4362   12.1234    8.3824 O.3    53  HOH53      -0.4105
    158 H           8.0087   11.7757    9.0826 H       0  HOH0        0.2052
    159 H           8.0056   12.7414    7.8999 H       0  HOH0        0.2052
    160 O          10.1001    0.9205   -0.7389 O.3    54  HOH54      -0.4105
    161 H           9.9522    0.1777   -0.1345 H       0  HOH0        0.2052
    162 H          10.5989    1.5590   -0.2074 H       0  HOH0        0.2052
    163 O           8.9408    1.9417    1.9291 O.3    55  HOH55      -0.4105
    164 H           9.5156    2.5545    2.4118 H       0  HOH0        0.2052
    165 H           8.5794    1.3664    2.6201 H       0  HOH0        0.2052
    166 O           9.4560    2.0820    5.1521 O.3    56  HOH56      -0.4105
    167 H          10.3353    2.3369    4.8346 H       0  HOH0        0.2052
    168 H           9.4017    1.1346    4.9556 H       0  HOH0        0.2052
    169 O          10.1987    0.3058    7.9174 O.3    57  HOH57      -0.4105
    170 H          10.1887    0.0606    8.8548 H       0  HOH0        0.2052
    171 H           9.4439    0.9064    7.8245 H       0  HOH0        0.2052
    172 O           9.5011    4.3529    0.1100 O.3    58  HOH58      -0.4105
    173 H          10.2305    3.8818    0.5402 H       0  HOH0        0.2052
    174 H           8.8364    4.4437    0.8092 H       0  HOH0        0.2052
    175 O          10.0327    4.9846    3.9255 O.3    59  HOH59      -0.4105
    176 H          10.7246    5.5802    3.6007 H       0  HOH0        0.2052
    177 H           9.5041    4.7882    3.1375 H       0  HOH0        0.2052
    178 O          10.0957    3.7772    7.5468 O.3    60  HOH60      -0.4105
    179 H          10.6698    3.0029    7.6459 H       0  HOH0        0.2052
    180 H          10.3494    4.3527    8.2839 H       0  HOH0        0.2052
    181 O           9.9050    2.6176   10.3665 O.3    61  HOH61      -0.4105
    182 H          10.2560    3.4943   10.5836 H       0  HOH0        0.2052
    183 H          10.6380    2.1784    9.9097 H       0  HOH0        0.2052
    184 O           9.3426    7.3131    1.1285 O.3    62  HOH62      -0.4105
    185 H           9.7039    6.8028    1.8688 H       0  HOH0        0.2052
    186 H           9.4207    8.2343    1.4189 H       0  HOH0        0.2052
    187 O          10.5274    8.3015    4.3887 O.3    63  HOH63      -0.4105
    188 H          10.3438    8.7714    3.5613 H       0  HOH0        0.2052
    189 H          11.4869    8.1669    4.3735 H       0  HOH0        0.2052
    190 O           8.9845    6.5249    6.5110 O.3    64  HOH64      -0.4105
    191 H           9.5997    7.2368    6.7426 H       0  HOH0        0.2052
    192 H           8.7204    6.1560    7.3671 H       0  HOH0        0.2052
    193 O           9.7170    7.1358    9.8019 O.3    65  HOH65      -0.4105
    194 H           9.7373    7.7827    9.0808 H       0  HOH0        0.2052
    195 H          10.0545    6.3229    9.3966 H       0  HOH0        0.2052
    196 O           8.9325    7.1009   12.9661 O.3    66  HOH66      -0.4105
    197 H           8.5667    6.5236   12.2793 H       0  HOH0        0.2052
    198 H           9.2812    7.8589   12.4735 H       0  HOH0        0.2052
    199 O           9.7925   11.9464    1.2018 O.3    67  HOH67      -0.4105
    200 H          10.1666   12.5559    1.8555 H       0  HOH0        0.2052
    201 H           9.8857   11.0746    1.6143 H       0  HOH0        0.2052
    202 O           8.8863   11.4009    4.2615 O.3    68  HOH68      -0.4105
    203 H           9.7642   11.7948    4.1464 H       0  HOH0        0.2052
    204 H           8.9027   10.6206    3.6871 H       0  HOH0        0.2052
    205 O          10.4554   11.3138    7.3036 O.3    69  HOH69      -0.4105
    206 H          10.1860   11.3912    8.2311 H       0  HOH0        0.2052
    207 H          10.0636   12.0924    6.8802 H       0  HOH0        0.2052
    208 O           9.7766   10.2223   10.9447 O.3    70  HOH70      -0.4105
    209 H           9.1685   10.9765   10.9633 H       0  HOH0        0.2052
    210 H           9.8245    9.9833   10.0068 H       0  HOH0        0.2052
    211 O          12.9535   -0.6342   -0.1520 O.3    71  HOH71      -0.4105
    212 H          12.8327    0.0241   -0.8527 H       0  HOH0        0.2052
    213 H          13.3828   -0.1397    0.5623 H       0  HOH0        0.2052
    214 O          11.1547    0.2023    2.4820 O.3    72  HOH72      -0.4105
    215 H          11.5593    0.7774    1.8153 H       0  HOH0        0.2052
    216 H          11.2941    0.6762    3.3156 H       0  HOH0        0.2052
    217 O          12.6349    1.1185    5.7468 O.3    73  HOH73      -0.4105
    218 H          12.1649    1.7228    6.3407 H       0  HOH0        0.2052
    219 H          13.1798    1.7043    5.2000 H       0  HOH0        0.2052
    220 O          12.0237   -0.3706   11.4775 O.3    74  HOH74      -0.4105
    221 H          12.1067    0.0455   12.3486 H       0  HOH0        0.2052
    222 H          11.4501    0.2338   10.9830 H       0  HOH0        0.2052
    223 O          13.1296    2.6954   -0.4035 O.3    75  HOH75      -0.4105
    224 H          13.2435    2.2636    0.4564 H       0  HOH0        0.2052
    225 H          12.2852    3.1633   -0.3205 H       0  HOH0        0.2052
    226 O          12.2822    3.1859    2.9413 O.3    76  HOH76      -0.4105
    227 H          13.1478    3.5759    2.7476 H       0  HOH0        0.2052
    228 H          11.8169    3.2152    2.0919 H       0  HOH0        0.2052
    229 O          12.6761    4.4085    5.6448 O.3    77  HOH77      -0.4105
    230 H          12.5002    4.1236    6.5541 H       0  HOH0        0.2052
    231 H          13.3611    5.0871    5.7405 H       0  HOH0        0.2052
    232 O          12.8092    4.6108    9.6191 O.3    78  HOH78      -0.4105
    233 H          12.0187    5.1669    9.6892 H       0  HOH0        0.2052
    234 H          12.4730    3.7676    9.2802 H       0  HOH0        0.2052
    235 O          12.6797    2.8105   12.2604 O.3    79  HOH79      -0.4105
    236 H          12.5263    2.4750   11.3644 H       0  HOH0        0.2052
    237 H          13.2305    3.5962   12.1251 H       0  HOH0        0.2052
    238 O          12.3656    5.6615    0.7148 O.3    80  HOH80      -0.4105
    239 H          11.8005    5.5925    1.4990 H       0  HOH0        0.2052
    240 H          13.1280    5.1020    0.9257 H       0  HOH0        0.2052
    241 O          12.1585    7.0572    7.4420 O.3    81  HOH81      -0.4105
    242 H          11.9932    6.8381    6.5127 H       0  HOH0        0.2052
    243 H          12.9609    6.5599    7.6606 H       0  HOH0        0.2052
    244 O          12.4700    8.1369   10.4733 O.3    82  HOH82      -0.4105
    245 H          12.9858    7.4196   10.0752 H       0  HOH0        0.2052
    246 H          12.0803    8.5947    9.7133 H       0  HOH0        0.2052
    247 O          11.8798    5.8546   12.8726 O.3    83  HOH83      -0.4105
    248 H          11.6662    5.6717   11.9453 H       0  HOH0        0.2052
    249 H          12.0278    6.8120   12.8943 H       0  HOH0        0.2052
    250 O          12.3546    8.6398    1.0949 O.3    84  HOH84      -0.4105
    251 H          11.8818    8.2414    1.8411 H       0  HOH0        0.2052
    252 H          13.2661    8.7232    1.4130 H       0  HOH0        0.2052
    253 O          12.2679   10.9760    3.1324 O.3    85  HOH85      -0.4105
    254 H          12.4763   10.0616    3.3758 H       0  HOH0        0.2052
    255 H          12.0325   11.3944    3.9741 H       0  HOH0        0.2052
    256 O          12.8724    9.7044    6.1717 O.3    86  HOH86      -0.4105
    257 H          12.7704   10.6654    6.1012 H       0  HOH0        0.2052
    258 H          13.4053    9.4681    5.3977 H       0  HOH0        0.2052
    259 O          12.6195   11.8212    9.8633 O.3    87  HOH87      -0.4105
    260 H          12.5229   12.2634    9.0065 H       0  HOH0        0.2052
    261 H          12.0577   11.0354    9.7859 H       0  HOH0        0.2052
@<TRIPOS>BOND
     1     1     2    1
     2     1     3    1
     3     4     5    1
     4     4     6    1
     5     7     8    1
     6     7     9    1
     7    10    11    1
     8    10    12    1
     9    13    14    1
    10    13    15    1
    11    16    17    1
    12    16    18    1
    13    19    20    1
    14    19    21    1
    15    22    23    1
    16    22    24    1
    17    25    26    1
    18    25    27    1
    19    28    29    1
    20    28    30    1
    21    31    32    1
    22    31    33    1
    23    34    35    1
    24    34    36    1
    25    37    38    1
    26    37    39    1
    27    40    41    1
    28    40    42    1
    29    43    44    1
    30    43    45    1
    31    46    47    1
    32    46    48    1
    33    49    50    1
    34    49    51    1
    35    52    53    1
    36    52    54    1
    37    55    56    1
    38    55    57    1
    39    58    59    1
    40    58    60    1
    41    61    62    1
    42    61    63    1
    43    64    65    1
    44    64    66    1
    45    67    68    1
    46    67    69    1
    47    70    71    1
    48    70    72    1
    49    73    74    1
    50    73    75    1
    51    76    77    1
    52    76    78    1
    53    79    80    1
    54    79    81    1
    55    82    83    1
    56    82    84    1
    57    85    86    1
    58    85    87    1
    59    88    89    1
    60    88    90    1
    61    91    92    1
    62    91    93    1
    63    94    95    1
    64    94    96    1
    65    97    98    1
    66    97    99    1
    67   100   101    1
    68   100   102    1
    69   103   104    1
    70   103   105    1
    71   106   107    1
    72   106   108    1
    73   109   110    1
    74   109   111    1
    75   112   113    1
    76   112   114    1
    77   115   116    1
    78   115   117    1
    79   118   119    1
    80   118   120    1
    81   121   122    1
    82   121   123    1
    83   124   125    1
    84   124   126    1
    85   127   128    1
    86   127   129    1
    87   130   131    1
    88   130   132    1
    89   133   134    1
    90   133   135    1
    91   136   137    1
    92   136   138    1
    93   139   140    1
    94   139   141    1
    95   142   143    1
    96   142   144    1
    97   145   146    1
    98   145   147    1
    99   148   149    1
   100   148   150    1
   101   151   152    1
   102   151   153    1
   103   154   155    1
   104   154   156    1
   105   157   158    1
   106   157   159    1
   107   160   161    1
   108   160   162    1
   109   163   164    1
   110   163   165    1
   111   166   167    1
   112   166   168    1
   113   169   170    1
   114   169   171    1
   115   172   173    1
   116   172   174    1
   117   175   176    1
   118   175   177    1
   119   178   179    1
   120   178   180    1
   121   181   182    1
   122   181   183    1
   123   184   185    1
   124   184   186    1
   125   187   188    1
   126   187   189    1
   127   190   191    1
   128   190   192    1
   129   193   194    1
   130   193   195    1
   131   196   197    1
   132   196   198    1
   133   199   200    1
   134   199   201    1
   135   202   203    1
   136   202   204    1
   137   205   206    1
   138   205   207    1
   139   208   209    1
   140   208   210    1
   141   211   212    1
   142   211   213    1
   143   214   215    1
   144   214   216    1
   145   217   218    1
   146   217   219    1
   147   220   221    1
   148   220   222    1
   149   223   224    1
   150   223   225    1
   151   226   227    1
   152   226   228    1
   153   229   230    1
   154   229   231    1
   155   232   233    1
   156   232   234    1
   157   235   236    1
   158   235   237    1
   159   238   239    1
   160   238   240    1
   161   241   242    1
   162   241   243    1
   163   244   245    1
   164   244   246    1
   165   247   248    1
   166   247   249    1
   167   250   251    1
   168   250   252    1
   169   253   254    1
   170   253   255    1
   171   256   257    1
   172   256   258    1
   173   259   260    1
   174   259   261    1
