@<TRIPOS>MOLECULE
*****
 120 105 0 0 0
SMALL
GASTEIGER

@<TRIPOS>ATOM
      1 CL          4.0837    0.3333   -1.3154 Cl      1  UNL1       -0.1242
      2 CL          2.7853    3.3223   -0.7697 Cl      1  UNL1       -0.1242
      3 C           4.1845    1.1973    0.2378 C.3     1  UNL1        0.0360
      4 C           2.9635    2.0679    0.4807 C.3     1  UNL1        0.0360
      5 H           5.1016    1.7947    0.2279 H       1  UNL1        0.0441
      6 H           4.2758    0.4448    1.0264 H       1  UNL1        0.0441
      7 H           3.0468    2.5762    1.4458 H       1  UNL1        0.0441
      8 H           2.0462    1.4710    0.4872 H       1  UNL1        0.0441
      9 CL          0.3510    3.4164    6.9564 Cl      2  UNL2       -0.1242
     10 CL          1.4658    2.3218    4.0449 Cl      2  UNL2       -0.1242
     11 C          -0.6992    2.9400    5.6003 C.3     2  UNL2        0.0360
     12 C          -0.0820    1.8266    4.7714 C.3     2  UNL2        0.0360
     13 H          -0.8832    3.8313    4.9923 H       2  UNL2        0.0441
     14 H          -1.6532    2.6126    6.0236 H       2  UNL2        0.0441
     15 H          -0.7531    1.5462    3.9543 H       2  UNL2        0.0441
     16 H           0.1052    0.9365    5.3801 H       2  UNL2        0.0441
     17 CL         -0.2069    0.3837    9.3520 Cl      3  UNL3       -0.1242
     18 CL          2.4268   -1.3126   10.4026 Cl      3  UNL3       -0.1242
     19 C           0.4980    0.5411   10.9790 C.3     3  UNL3        0.0360
     20 C           2.0011    0.3209   10.9676 C.3     3  UNL3        0.0360
     21 H          -0.0034   -0.1813   11.6308 H       3  UNL3        0.0441
     22 H           0.2655    1.5467   11.3414 H       3  UNL3        0.0441
     23 H           2.4083    0.4356   11.9764 H       3  UNL3        0.0441
     24 H           2.5021    1.0410   10.3132 H       3  UNL3        0.0441
     25 CL          2.5228    5.7728    3.2720 Cl      4  UNL4       -0.1242
     26 CL         -0.2966    5.2410    1.6331 Cl      4  UNL4       -0.1242
     27 C           2.2114    6.3355    1.6121 C.3     4  UNL4        0.0360
     28 C           0.7447    6.6645    1.3925 C.3     4  UNL4        0.0360
     29 H           2.5489    5.5523    0.9259 H       4  UNL4        0.0441
     30 H           2.8277    7.2238    1.4459 H       4  UNL4        0.0441
     31 H           0.5851    7.0187    0.3699 H       4  UNL4        0.0441
     32 H           0.4064    7.4451    2.0809 H       4  UNL4        0.0441
     33 CL         -2.3347    6.4439    6.5723 Cl      5  UNL5       -0.1242
     34 CL          0.9291    6.9588    6.5604 Cl      5  UNL5       -0.1242
     35 C          -1.4937    7.4931    5.4058 C.3     5  UNL5        0.0360
     36 C          -0.0921    6.9918    5.1027 C.3     5  UNL5        0.0360
     37 H          -1.4712    8.5046    5.8233 H       5  UNL5        0.0441
     38 H          -2.0940    7.5144    4.4916 H       5  UNL5        0.0441
     39 H           0.3955    7.6474    4.3753 H       5  UNL5        0.0441
     40 H          -0.1144    5.9790    4.6884 H       5  UNL5        0.0441
     41 CL          1.7898    3.8995   10.2640 Cl      6  UNL6       -0.1242
     42 CL         -1.4129    4.6048   10.6673 Cl      6  UNL6       -0.1242
     43 C           1.0765    5.5042    9.9727 C.3     6  UNL6        0.0360
     44 C          -0.0952    5.7787   10.8998 C.3     6  UNL6        0.0360
     45 H           0.7697    5.5469    8.9229 H       6  UNL6        0.0441
     46 H           1.8646    6.2466   10.1285 H       6  UNL6        0.0441
     47 H          -0.5051    6.7745   10.7073 H       6  UNL6        0.0441
     48 H           0.2109    5.7326   11.9496 H       6  UNL6        0.0441
     49 CL         -0.6047   12.5210    3.5419 Cl      7  UNL7       -0.1242
     50 CL          0.4794   12.4712    6.6627 Cl      7  UNL7       -0.1242
     51 C           0.3005   11.1684    4.2628 C.3     7  UNL7        0.0360
     52 C           0.0085   11.0196    5.7462 C.3     7  UNL7        0.0360
     53 H           1.3655   11.3476    4.0846 H       7  UNL7        0.0441
     54 H           0.0131   10.2589    3.7273 H       7  UNL7        0.0441
     55 H           0.5676   10.1751    6.1593 H       7  UNL7        0.0441
     56 H          -1.0569   10.8439    5.9246 H       7  UNL7        0.0441
     57 CL         -0.8699    9.0407    8.7214 Cl      8  UNL8       -0.1242
     58 CL          1.1980    9.0406   11.2984 Cl      8  UNL8       -0.1242
     59 C          -0.5467   10.4628    9.7421 C.3     8  UNL8        0.0360
     60 C           0.8749   10.4628   10.2778 C.3     8  UNL8        0.0360
     61 H          -1.2773   10.4610   10.5571 H       8  UNL8        0.0441
     62 H          -0.7205   11.3524    9.1298 H       8  UNL8        0.0441
     63 H           1.0487   11.3524   10.8902 H       8  UNL8        0.0441
     64 H           1.6054   10.4611    9.4629 H       8  UNL8        0.0441
     65 CL          5.4642    4.1365    2.4086 Cl      9  UNL9       -0.1242
     66 CL          7.7514    1.8288    1.8079 Cl      9  UNL9       -0.1242
     67 C           5.6562    2.6481    3.3660 C.3     9  UNL9        0.0360
     68 C           7.1057    2.1972    3.4254 C.3     9  UNL9        0.0360
     69 H           5.0199    1.8789    2.9172 H       9  UNL9        0.0441
     70 H           5.2827    2.8554    4.3730 H       9  UNL9        0.0441
     71 H           7.1954    1.2893    4.0290 H       9  UNL9        0.0441
     72 H           7.7425    2.9678    3.8709 H       9  UNL9        0.0441
     73 CL          6.3259   -0.0691    7.0109 Cl     10  UNL10      -0.1242
     74 CL          3.1636    0.8842    7.1021 Cl     10  UNL10      -0.1242
     75 C           5.7928    1.5866    7.3892 C.3    10  UNL10       0.0360
     76 C           4.4512    1.5995    8.1017 C.3    10  UNL10       0.0360
     77 H           5.7477    2.1452    6.4491 H      10  UNL10       0.0441
     78 H           6.5611    2.0423    8.0206 H      10  UNL10       0.0441
     79 H           4.1548    2.6270    8.3323 H      10  UNL10       0.0441
     80 H           4.4954    1.0381    9.0401 H      10  UNL10       0.0441
     81 CL          7.9901    7.7951    1.2313 Cl     11  UNL11      -0.1242
     82 CL          5.2877    9.4121    2.2312 Cl     11  UNL11      -0.1242
     83 C           7.1022    7.4251    2.7292 C.3    11  UNL11       0.0360
     84 C           5.6148    7.6989    2.5869 C.3    11  UNL11       0.0360
     85 H           7.5405    8.0249    3.5331 H      11  UNL11       0.0441
     86 H           7.2726    6.3694    2.9592 H      11  UNL11       0.0441
     87 H           5.0937    7.4515    3.5164 H      11  UNL11       0.0441
     88 H           5.1773    7.1017    1.7808 H      11  UNL11       0.0441
     89 CL          3.6924    4.4639    6.0907 Cl     12  UNL12      -0.1242
     90 CL          4.3358    6.6780    8.4575 Cl     12  UNL12      -0.1242
     91 C           5.1586    5.4721    6.1428 C.3    12  UNL12       0.0360
     92 C           5.5861    5.7748    7.5688 C.3    12  UNL12       0.0360
     93 H           4.9502    6.3922    5.5878 H      12  UNL12       0.0441
     94 H           5.9493    4.9284    5.6179 H      12  UNL12       0.0441
     95 H           6.4946    6.3841    7.5704 H      12  UNL12       0.0441
     96 H           5.7911    4.8546    8.1248 H      12  UNL12       0.0441
     97 CL          9.4744    4.7510   11.2998 Cl     13  UNL13      -0.1242
     98 CL          6.1722    4.8356   11.2238 Cl     13  UNL13      -0.1242
     99 C           8.5272    5.7954   10.2131 C.3    13  UNL13       0.0360
    100 C           7.2155    6.2275   10.8459 C.3    13  UNL13       0.0360
    101 H           8.3559    5.2418    9.2845 H      13  UNL13       0.0441
    102 H           9.1417    6.6700    9.9807 H      13  UNL13       0.0441
    103 H           6.6611    6.8769   10.1621 H      13  UNL13       0.0441
    104 H           7.3867    6.7780   11.7761 H      13  UNL13       0.0441
    105 CL          3.1087    8.9994    4.9024 Cl     14  UNL14      -0.1242
    106 CL          5.4287   11.3454    5.0801 Cl     14  UNL14      -0.1242
    107 C           3.5503    9.8557    6.3993 C.3    14  UNL14       0.0360
    108 C           3.9890   11.2840    6.1252 C.3    14  UNL14       0.0360
    109 H           4.3452    9.2838    6.8883 H      14  UNL14       0.0441
    110 H           2.6729    9.8479    7.0526 H      14  UNL14       0.0441
    111 H           4.2420   11.7888    7.0621 H      14  UNL14       0.0441
    112 H           3.1954   11.8548    5.6332 H      14  UNL14       0.0441
    113 CL          4.5815    8.8941   11.7437 Cl     15  UNL15      -0.1242
    114 CL          6.2070   10.0224    9.0976 Cl     15  UNL15      -0.1242
    115 C           4.5473   10.5883   11.1985 C.3    15  UNL15       0.0360
    116 C           4.6700   10.6988    9.6884 C.3    15  UNL15       0.0360
    117 H           5.3628   11.1169   11.7021 H      15  UNL15       0.0441
    118 H           3.6008   11.0219   11.5341 H      15  UNL15       0.0441
    119 H           4.6337   11.7481    9.3813 H      15  UNL15       0.0441
    120 H           3.8566   10.1673    9.1848 H      15  UNL15       0.0441
@<TRIPOS>BOND
     1     1     3    1
     2     2     4    1
     3     3     4    1
     4     3     5    1
     5     3     6    1
     6     4     7    1
     7     4     8    1
     8     9    11    1
     9    10    12    1
    10    11    12    1
    11    11    13    1
    12    11    14    1
    13    12    15    1
    14    12    16    1
    15    17    19    1
    16    18    20    1
    17    19    20    1
    18    19    21    1
    19    19    22    1
    20    20    23    1
    21    20    24    1
    22    25    27    1
    23    26    28    1
    24    27    28    1
    25    27    29    1
    26    27    30    1
    27    28    31    1
    28    28    32    1
    29    33    35    1
    30    34    36    1
    31    35    36    1
    32    35    37    1
    33    35    38    1
    34    36    39    1
    35    36    40    1
    36    41    43    1
    37    42    44    1
    38    43    44    1
    39    43    45    1
    40    43    46    1
    41    44    47    1
    42    44    48    1
    43    49    51    1
    44    50    52    1
    45    51    52    1
    46    51    53    1
    47    51    54    1
    48    52    55    1
    49    52    56    1
    50    57    59    1
    51    58    60    1
    52    59    60    1
    53    59    61    1
    54    59    62    1
    55    60    63    1
    56    60    64    1
    57    65    67    1
    58    66    68    1
    59    67    68    1
    60    67    69    1
    61    67    70    1
    62    68    71    1
    63    68    72    1
    64    73    75    1
    65    74    76    1
    66    75    76    1
    67    75    77    1
    68    75    78    1
    69    76    79    1
    70    76    80    1
    71    81    83    1
    72    82    84    1
    73    83    84    1
    74    83    85    1
    75    83    86    1
    76    84    87    1
    77    84    88    1
    78    89    91    1
    79    90    92    1
    80    91    92    1
    81    91    93    1
    82    91    94    1
    83    92    95    1
    84    92    96    1
    85    97    99    1
    86    98   100    1
    87    99   100    1
    88    99   101    1
    89    99   102    1
    90   100   103    1
    91   100   104    1
    92   105   107    1
    93   106   108    1
    94   107   108    1
    95   107   109    1
    96   107   110    1
    97   108   111    1
    98   108   112    1
    99   113   115    1
   100   114   116    1
   101   115   116    1
   102   115   117    1
   103   115   118    1
   104   116   119    1
   105   116   120    1
