@<TRIPOS>MOLECULE
*****
 128 112 0 0 0
SMALL
GASTEIGER

@<TRIPOS>ATOM
      1 CL          2.2222   -1.5752    0.5608 Cl      1  UNL1       -0.1242
      2 CL          2.3606    1.7212    0.3809 Cl      1  UNL1       -0.1242
      3 C           3.7363   -0.6421    0.4855 C.3     1  UNL1        0.0360
      4 C           3.6007    0.7111    1.1624 C.3     1  UNL1        0.0360
      5 H           4.0080   -0.5322   -0.5691 H       1  UNL1        0.0441
      6 H           4.5122   -1.2355    0.9778 H       1  UNL1        0.0441
      7 H           4.5476    1.2564    1.1118 H       1  UNL1        0.0441
      8 H           3.3257    0.6014    2.2160 H       1  UNL1        0.0441
      9 CL          1.6387    2.6457    4.3957 Cl      2  UNL2       -0.1242
     10 CL          0.1251   -0.2902    4.4789 Cl      2  UNL2       -0.1242
     11 C           0.1413    2.3198    5.3013 C.3     2  UNL2        0.0360
     12 C           0.0889    0.8897    5.8112 C.3     2  UNL2        0.0360
     13 H          -0.7027    2.5353    4.6385 H       2  UNL2        0.0441
     14 H           0.1052    3.0220    6.1393 H       2  UNL2        0.0441
     15 H          -0.8344    0.7217    6.3733 H       2  UNL2        0.0441
     16 H           0.9346    0.6732    6.4713 H       2  UNL2        0.0441
     17 CL          0.8387   -0.7136    9.2187 Cl      3  UNL3       -0.1242
     18 CL         -1.2299    1.1838   10.9619 Cl      3  UNL3       -0.1242
     19 C           1.0652    1.0327    9.4792 C.3     3  UNL3        0.0360
     20 C           0.5202    1.4789   10.8252 C.3     3  UNL3        0.0360
     21 H           0.5704    1.5592    8.6571 H       3  UNL3        0.0441
     22 H           2.1381    1.2369    9.4187 H       3  UNL3        0.0441
     23 H           0.6838    2.5516   10.9632 H       3  UNL3        0.0441
     24 H           1.0126    0.9499   11.6472 H       3  UNL3        0.0441
     25 CL          2.8387    7.6231    2.1939 Cl      4  UNL4       -0.1242
     26 CL          2.9887    6.9041   -1.0276 Cl      4  UNL4       -0.1242
     27 C           2.0394    6.2194    1.4460 C.3     4  UNL4        0.0360
     28 C           2.8258    5.6863    0.2605 C.3     4  UNL4        0.0360
     29 H           1.0331    6.5291    1.1470 H       4  UNL4        0.0441
     30 H           1.9446    5.4475    2.2153 H       4  UNL4        0.0441
     31 H           2.3187    4.8184   -0.1708 H       4  UNL4        0.0441
     32 H           3.8332    5.3799    0.5588 H       4  UNL4        0.0441
     33 CL          1.9696    7.3537    5.9569 Cl      5  UNL5       -0.1242
     34 CL         -1.3299    7.5225    5.9122 Cl      5  UNL5       -0.1242
     35 C           0.9175    6.1312    5.2037 C.3     5  UNL5        0.0360
     36 C          -0.3527    6.7471    4.6424 C.3     5  UNL5        0.0360
     37 H           0.6899    5.3749    5.9615 H       5  UNL5        0.0441
     38 H           1.4910    5.6521    4.4048 H       5  UNL5        0.0441
     39 H          -0.9731    5.9763    4.1757 H       5  UNL5        0.0441
     40 H          -0.1250    7.5057    3.8871 H       5  UNL5        0.0441
     41 CL          1.1606    4.4291    8.4342 Cl      6  UNL6       -0.1242
     42 CL         -1.8614    5.0010    9.6416 Cl      6  UNL6       -0.1242
     43 C           0.7271    5.8566    9.4053 C.3     6  UNL6        0.0360
     44 C          -0.3557    5.5405   10.4229 C.3     6  UNL6        0.0360
     45 H           0.4056    6.6436    8.7159 H       6  UNL6        0.0441
     46 H           1.6350    6.1967    9.9119 H       6  UNL6        0.0441
     47 H          -0.5928    6.4309   11.0124 H       6  UNL6        0.0441
     48 H          -0.0354    4.7512   11.1101 H       6  UNL6        0.0441
     49 CL          0.4810   10.6801   -1.5289 Cl      7  UNL7       -0.1242
     50 CL          1.5211   11.6575    1.4511 Cl      7  UNL7       -0.1242
     51 C           0.7625    9.5789   -0.1589 C.3     7  UNL7        0.0360
     52 C           0.4703   10.2478    1.1734 C.3     7  UNL7        0.0360
     53 H           1.8016    9.2393   -0.2124 H       7  UNL7        0.0441
     54 H           0.1119    8.7104   -0.2972 H       7  UNL7        0.0441
     55 H           0.6396    9.5455    1.9948 H       7  UNL7        0.0441
     56 H          -0.5678   10.5904    1.2255 H       7  UNL7        0.0441
     57 CL         -2.1455   11.2562    5.4817 Cl      8  UNL8       -0.1242
     58 CL          0.9735   12.3200    5.7214 Cl      8  UNL8       -0.1242
     59 C          -0.8469   10.8046    4.3510 C.3     8  UNL8        0.0360
     60 C           0.5061   10.7437    5.0392 C.3     8  UNL8        0.0360
     61 H          -0.8448   11.5359    3.5367 H       8  UNL8        0.0441
     62 H          -1.1025    9.8272    3.9314 H       8  UNL8        0.0441
     63 H           1.2815   10.4525    4.3247 H       8  UNL8        0.0441
     64 H           0.5029   10.0149    5.8557 H       8  UNL8        0.0441
     65 CL         -0.2861   10.2326    8.6601 Cl      9  UNL9       -0.1242
     66 CL          0.3313    8.9811   11.6551 Cl      9  UNL9       -0.1242
     67 C           1.0615   10.7521    9.7009 C.3     9  UNL9        0.0360
     68 C           1.5840    9.6131   10.5597 C.3     9  UNL9        0.0360
     69 H           0.7048   11.5825   10.3182 H       9  UNL9        0.0441
     70 H           1.8542   11.1282    9.0477 H       9  UNL9        0.0441
     71 H           2.4178    9.9572   11.1786 H       9  UNL9        0.0441
     72 H           1.9374    8.7813    9.9424 H       9  UNL9        0.0441
     73 CL          5.6579    1.8420   -1.6001 Cl     10  UNL10      -0.1242
     74 CL          8.9009    2.2227   -2.1058 Cl     10  UNL10      -0.1242
     75 C           6.9143    0.8658   -0.8018 C.3    10  UNL10       0.0360
     76 C           8.1885    1.6609   -0.5743 C.3    10  UNL10       0.0360
     77 H           7.1015   -0.0125   -1.4275 H      10  UNL10       0.0441
     78 H           6.5060    0.5235    0.1536 H      10  UNL10       0.0441
     79 H           8.9371    1.0410   -0.0722 H      10  UNL10       0.0441
     80 H           8.0006    2.5410    0.0485 H      10  UNL10       0.0441
     81 CL          6.5584    0.1136    6.7841 Cl     11  UNL11      -0.1242
     82 CL          3.4222   -0.9247    6.7196 Cl     11  UNL11      -0.1242
     83 C           5.1674    1.1607    6.4132 C.3    11  UNL11       0.0360
     84 C           3.9181    0.7270    7.1609 C.3    11  UNL11       0.0360
     85 H           5.0102    1.1350    5.3303 H      11  UNL11       0.0441
     86 H           5.4414    2.1818    6.6942 H      11  UNL11       0.0441
     87 H           3.0842    1.3942    6.9239 H      11  UNL11       0.0441
     88 H           4.0764    0.7495    8.2436 H      11  UNL11       0.0441
     89 CL          7.3856   -0.0694   11.2096 Cl     12  UNL12      -0.1242
     90 CL          4.3804   -1.2485   10.5052 Cl     12  UNL12      -0.1242
     91 C           6.0302    0.9310   10.6344 C.3    12  UNL12       0.0360
     92 C           4.6907    0.3962   11.1114 C.3    12  UNL12       0.0360
     93 H           6.0785    0.9609    9.5413 H      12  UNL12       0.0441
     94 H           6.1885    1.9457   11.0111 H      12  UNL12       0.0441
     95 H           3.8786    1.0361   10.7541 H      12  UNL12       0.0441
     96 H           4.6436    0.3630   12.2043 H      12  UNL12       0.0441
     97 CL          8.2262    7.1548    0.1681 Cl     13  UNL13      -0.1242
     98 CL          6.1977    6.0541   -2.1964 Cl     13  UNL13      -0.1242
     99 C           6.8135    6.1145    0.4693 C.3    13  UNL13       0.0360
    100 C           6.5487    5.1707   -0.6913 C.3    13  UNL13       0.0360
    101 H           5.9535    6.7657    0.6546 H      13  UNL13       0.0441
    102 H           7.0137    5.5454    1.3818 H      13  UNL13       0.0441
    103 H           5.6844    4.5364   -0.4740 H      13  UNL13       0.0441
    104 H           7.4099    4.5219   -0.8789 H      13  UNL13       0.0441
    105 CL          6.5246    3.0784    2.5784 Cl     14  UNL14      -0.1242
    106 CL          5.8597    5.3676    4.8664 Cl     14  UNL14      -0.1242
    107 C           4.8857    3.4690    3.1532 C.3    14  UNL14       0.0360
    108 C           4.7559    4.9325    3.5394 C.3    14  UNL14       0.0360
    109 H           4.6653    2.8141    4.0021 H      14  UNL14       0.0441
    110 H           4.1886    3.2273    2.3456 H      14  UNL14       0.0441
    111 H           3.7374    5.1463    3.8763 H      14  UNL14       0.0441
    112 H           4.9796    5.5874    2.6915 H      14  UNL14       0.0441
    113 CL          3.4875    3.7381   10.9203 Cl     15  UNL15      -0.1242
    114 CL          5.9429    4.3657    8.8002 Cl     15  UNL15      -0.1242
    115 C           4.3089    5.3113   10.7812 C.3    15  UNL15       0.0360
    116 C           4.7717    5.5837    9.3602 C.3    15  UNL15       0.0360
    117 H           5.1520    5.3099   11.4792 H      15  UNL15       0.0441
    118 H           3.6008    6.0806   11.1027 H      15  UNL15       0.0441
    119 H           5.2610    6.5604    9.3020 H      15  UNL15       0.0441
    120 H           3.9292    5.5817    8.6617 H      15  UNL15       0.0441
    121 CL          8.5343    9.1085   11.0442 Cl     16  UNL16      -0.1242
    122 CL          5.2416    9.0093   10.7877 Cl     16  UNL16      -0.1242
    123 C           7.5715   10.2662   10.0947 C.3    16  UNL16       0.0360
    124 C           6.2042   10.5047   10.7122 C.3    16  UNL16       0.0360
    125 H           7.4836    9.8714    9.0776 H      16  UNL16       0.0441
    126 H           8.1352   11.2025   10.0499 H      16  UNL16       0.0441
    127 H           5.6404   11.2281   10.1159 H      16  UNL16       0.0441
    128 H           6.2921   10.8963   11.7304 H      16  UNL16       0.0441
@<TRIPOS>BOND
     1     1     3    1
     2     2     4    1
     3     3     4    1
     4     3     5    1
     5     3     6    1
     6     4     7    1
     7     4     8    1
     8     9    11    1
     9    10    12    1
    10    11    12    1
    11    11    13    1
    12    11    14    1
    13    12    15    1
    14    12    16    1
    15    17    19    1
    16    18    20    1
    17    19    20    1
    18    19    21    1
    19    19    22    1
    20    20    23    1
    21    20    24    1
    22    25    27    1
    23    26    28    1
    24    27    28    1
    25    27    29    1
    26    27    30    1
    27    28    31    1
    28    28    32    1
    29    33    35    1
    30    34    36    1
    31    35    36    1
    32    35    37    1
    33    35    38    1
    34    36    39    1
    35    36    40    1
    36    41    43    1
    37    42    44    1
    38    43    44    1
    39    43    45    1
    40    43    46    1
    41    44    47    1
    42    44    48    1
    43    49    51    1
    44    50    52    1
    45    51    52    1
    46    51    53    1
    47    51    54    1
    48    52    55    1
    49    52    56    1
    50    57    59    1
    51    58    60    1
    52    59    60    1
    53    59    61    1
    54    59    62    1
    55    60    63    1
    56    60    64    1
    57    65    67    1
    58    66    68    1
    59    67    68    1
    60    67    69    1
    61    67    70    1
    62    68    71    1
    63    68    72    1
    64    73    75    1
    65    74    76    1
    66    75    76    1
    67    75    77    1
    68    75    78    1
    69    76    79    1
    70    76    80    1
    71    81    83    1
    72    82    84    1
    73    83    84    1
    74    83    85    1
    75    83    86    1
    76    84    87    1
    77    84    88    1
    78    89    91    1
    79    90    92    1
    80    91    92    1
    81    91    93    1
    82    91    94    1
    83    92    95    1
    84    92    96    1
    85    97    99    1
    86    98   100    1
    87    99   100    1
    88    99   101    1
    89    99   102    1
    90   100   103    1
    91   100   104    1
    92   105   107    1
    93   106   108    1
    94   107   108    1
    95   107   109    1
    96   107   110    1
    97   108   111    1
    98   108   112    1
    99   113   115    1
   100   114   116    1
   101   115   116    1
   102   115   117    1
   103   115   118    1
   104   116   119    1
   105   116   120    1
   106   121   123    1
   107   122   124    1
   108   123   124    1
   109   123   125    1
   110   123   126    1
   111   124   127    1
   112   124   128    1
